<?xml version="1.0" encoding="UTF-8"?>

<!-- generated on 2023-03-21 08:28:58.436312 by randomTrips.py v1_15_0+0002-e6790248698
<configuration>
    <end value="100000"/>
    <fringe-factor value="20"/>
    <net-file value="nets/2x2grid/2x2.net.xml"/>
    <period value="10.0"/>
    <route-file value="random100.rou.xml"/>
    <trip-attributes value="departLane=&quot;best&quot; departSpeed=&quot;max&quot;"/>
</configuration>
-->

<!-- generated on 2023-03-21 08:28:57 by Eclipse SUMO duarouter Version 1.15.0
<configuration xmlns:xsi="http://www.w3.org/2001/XMLSchema-instance" xsi:noNamespaceSchemaLocation="http://sumo.dlr.de/xsd/duarouterConfiguration.xsd">

    <input>
        <net-file value="nets/2x2grid/2x2.net.xml"/>
        <route-files value="trips.trips.xml"/>
    </input>

    <output>
        <output-file value="random100.rou.xml"/>
        <alternatives-output value="NUL"/>
    </output>

    <time>
        <begin value="0"/>
        <end value="100000"/>
    </time>

    <report>
        <no-warnings value="true"/>
        <ignore-errors value="true"/>
        <no-step-log value="true"/>
    </report>

</configuration>
-->

<routes xmlns:xsi="http://www.w3.org/2001/XMLSchema-instance" xsi:noNamespaceSchemaLocation="http://sumo.dlr.de/xsd/routes_file.xsd">
    <vehicle id="0" depart="0.00" departLane="best" departSpeed="max">
        <route edges="h23 v22 -h13"/>
    </vehicle>
    <vehicle id="1" depart="10.00" departLane="best" departSpeed="max">
        <route edges="-v11 -h12 -v22 -h23"/>
    </vehicle>
    <vehicle id="2" depart="20.00" departLane="best" departSpeed="max">
        <route edges="h23 h22 h21"/>
    </vehicle>
    <vehicle id="3" depart="30.00" departLane="best" departSpeed="max">
        <route edges="v23 v22 -h13"/>
    </vehicle>
    <vehicle id="4" depart="40.00" departLane="best" departSpeed="max">
        <route edges="-v21 -h13"/>
    </vehicle>
    <vehicle id="5" depart="50.00" departLane="best" departSpeed="max">
        <route edges="-h21 v12 h11"/>
    </vehicle>
    <vehicle id="6" depart="60.00" departLane="best" departSpeed="max">
        <route edges="-h11 -h12 -v22 -h23"/>
    </vehicle>
    <vehicle id="7" depart="70.00" departLane="best" departSpeed="max">
        <route edges="h23 h22 v12 h11"/>
    </vehicle>
    <vehicle id="8" depart="80.00" departLane="best" departSpeed="max">
        <route edges="-h21 v12 h11"/>
    </vehicle>
    <vehicle id="9" depart="90.00" departLane="best" departSpeed="max">
        <route edges="v13 -h22 v22 -h13"/>
    </vehicle>
    <vehicle id="10" depart="100.00" departLane="best" departSpeed="max">
        <route edges="v13 h21"/>
    </vehicle>
    <vehicle id="11" depart="110.00" departLane="best" departSpeed="max">
        <route edges="-v11 -h12 -v22 -h23"/>
    </vehicle>
    <vehicle id="12" depart="120.00" departLane="best" departSpeed="max">
        <route edges="v23 h22 -v13"/>
    </vehicle>
    <vehicle id="13" depart="130.00" departLane="best" departSpeed="max">
        <route edges="-h11 -h12 -h13"/>
    </vehicle>
    <vehicle id="14" depart="140.00" departLane="best" departSpeed="max">
        <route edges="v13 v12 h11"/>
    </vehicle>
    <vehicle id="15" depart="150.00" departLane="best" departSpeed="max">
        <route edges="v13 h21"/>
    </vehicle>
    <vehicle id="16" depart="160.00" departLane="best" departSpeed="max">
        <route edges="h13 v21"/>
    </vehicle>
    <vehicle id="17" depart="170.00" departLane="best" departSpeed="max">
        <route edges="-v21 h12 h11"/>
    </vehicle>
    <vehicle id="18" depart="180.00" departLane="best" departSpeed="max">
        <route edges="v13 v12 h11"/>
    </vehicle>
    <vehicle id="19" depart="190.00" departLane="best" departSpeed="max">
        <route edges="v13 v12 h11"/>
    </vehicle>
    <vehicle id="20" depart="200.00" departLane="best" departSpeed="max">
        <route edges="h23 v22 -h13"/>
    </vehicle>
    <vehicle id="21" depart="210.00" departLane="best" departSpeed="max">
        <route edges="-h21 -v13"/>
    </vehicle>
    <vehicle id="22" depart="220.00" departLane="best" departSpeed="max">
        <route edges="-h11 -h12 -v22 -h23"/>
    </vehicle>
    <vehicle id="23" depart="230.00" departLane="best" departSpeed="max">
        <route edges="-h11 -v12 -v13"/>
    </vehicle>
    <vehicle id="24" depart="240.00" departLane="best" departSpeed="max">
        <route edges="h23 h22 -v13"/>
    </vehicle>
    <vehicle id="25" depart="250.00" departLane="best" departSpeed="max">
        <route edges="-v12 -h22 -h23"/>
    </vehicle>
    <vehicle id="26" depart="260.00" departLane="best" departSpeed="max">
        <route edges="-v11 -h12 v21"/>
    </vehicle>
    <vehicle id="27" depart="270.00" departLane="best" departSpeed="max">
        <route edges="h23 h22 v12 h11"/>
    </vehicle>
    <vehicle id="28" depart="280.00" departLane="best" departSpeed="max">
        <route edges="-h21 v12 -h12 -v22 h22 h21"/>
    </vehicle>
    <vehicle id="29" depart="290.00" departLane="best" departSpeed="max">
        <route edges="-h21 v12 -h12 -v22"/>
    </vehicle>
    <vehicle id="30" depart="300.00" departLane="best" departSpeed="max">
        <route edges="v23 h22 h21"/>
    </vehicle>
    <vehicle id="31" depart="310.00" departLane="best" departSpeed="max">
        <route edges="h13 -v22 h22 h21"/>
    </vehicle>
    <vehicle id="32" depart="320.00" departLane="best" departSpeed="max">
        <route edges="v13 v12 v11"/>
    </vehicle>
    <vehicle id="33" depart="330.00" departLane="best" departSpeed="max">
        <route edges="-h21 v12 -h12 -h13"/>
    </vehicle>
    <vehicle id="34" depart="340.00" departLane="best" departSpeed="max">
        <route edges="-v11 -v12 -v13"/>
    </vehicle>
    <vehicle id="35" depart="350.00" departLane="best" departSpeed="max">
        <route edges="-h21 v12 -h12 v21"/>
    </vehicle>
    <vehicle id="36" depart="360.00" departLane="best" departSpeed="max">
        <route edges="v22 h12 -v12 -v13"/>
    </vehicle>
    <vehicle id="37" depart="370.00" departLane="best" departSpeed="max">
        <route edges="h23 -v23"/>
    </vehicle>
    <vehicle id="38" depart="380.00" departLane="best" departSpeed="max">
        <route edges="v23 h22 v12 -h12 -v22 -v23"/>
    </vehicle>
    <vehicle id="39" depart="390.00" departLane="best" departSpeed="max">
        <route edges="-v11 -h12 -v22 -h23"/>
    </vehicle>
    <vehicle id="40" depart="400.00" departLane="best" departSpeed="max">
        <route edges="h13 -v22 h22 -v13"/>
    </vehicle>
    <vehicle id="41" depart="410.00" departLane="best" departSpeed="max">
        <route edges="h13 v21"/>
    </vehicle>
    <vehicle id="42" depart="420.00" departLane="best" departSpeed="max">
        <route edges="-v21 -v22 -h23"/>
    </vehicle>
    <vehicle id="43" depart="430.00" departLane="best" departSpeed="max">
        <route edges="v23 h22 v12 h11"/>
    </vehicle>
    <vehicle id="44" depart="440.00" departLane="best" departSpeed="max">
        <route edges="-h11 -h12 -h13"/>
    </vehicle>
    <vehicle id="45" depart="450.00" departLane="best" departSpeed="max">
        <route edges="-h11 -v12 h21"/>
    </vehicle>
    <vehicle id="46" depart="460.00" departLane="best" departSpeed="max">
        <route edges="v13 -h22 -v23"/>
    </vehicle>
    <vehicle id="47" depart="470.00" departLane="best" departSpeed="max">
        <route edges="-h11 -v12 -h22 -v23"/>
    </vehicle>
    <vehicle id="48" depart="480.00" departLane="best" departSpeed="max">
        <route edges="v23 h22 v12 h11"/>
    </vehicle>
    <vehicle id="49" depart="490.00" departLane="best" departSpeed="max">
        <route edges="v23 h22 v12 v11"/>
    </vehicle>
    <vehicle id="50" depart="500.00" departLane="best" departSpeed="max">
        <route edges="-h11 -v12 h21"/>
    </vehicle>
    <vehicle id="51" depart="510.00" departLane="best" departSpeed="max">
        <route edges="h23 h22 v12 h11"/>
    </vehicle>
    <vehicle id="52" depart="520.00" departLane="best" departSpeed="max">
        <route edges="-v11 -v12 h21"/>
    </vehicle>
    <vehicle id="53" depart="530.00" departLane="best" departSpeed="max">
        <route edges="-h11 -v12 -h22 -v23"/>
    </vehicle>
    <vehicle id="54" depart="540.00" departLane="best" departSpeed="max">
        <route edges="-v21 -v22 h22 v12 -h12 v21"/>
    </vehicle>
    <vehicle id="55" depart="550.00" departLane="best" departSpeed="max">
        <route edges="v22 h12 -v12 -v13"/>
    </vehicle>
    <vehicle id="56" depart="560.00" departLane="best" departSpeed="max">
        <route edges="h12 -v12 -h22 -h23"/>
    </vehicle>
    <vehicle id="57" depart="570.00" departLane="best" departSpeed="max">
        <route edges="v23 h22 v12"/>
    </vehicle>
    <vehicle id="58" depart="580.00" departLane="best" departSpeed="max">
        <route edges="-v11 -v12 h21"/>
    </vehicle>
    <vehicle id="59" depart="590.00" departLane="best" departSpeed="max">
        <route edges="h13 -v22 -h23"/>
    </vehicle>
    <vehicle id="60" depart="600.00" departLane="best" departSpeed="max">
        <route edges="v13 v12 h11"/>
    </vehicle>
    <vehicle id="61" depart="610.00" departLane="best" departSpeed="max">
        <route edges="v13 v12 h11"/>
    </vehicle>
    <vehicle id="62" depart="620.00" departLane="best" departSpeed="max">
        <route edges="-h11 -v12 -v13"/>
    </vehicle>
    <vehicle id="63" depart="630.00" departLane="best" departSpeed="max">
        <route edges="-h11 -h12 v21"/>
    </vehicle>
    <vehicle id="64" depart="640.00" departLane="best" departSpeed="max">
        <route edges="v22 h12 v11"/>
    </vehicle>
    <vehicle id="65" depart="650.00" departLane="best" departSpeed="max">
        <route edges="-v11 -h12 -h13"/>
    </vehicle>
    <vehicle id="66" depart="660.00" departLane="best" departSpeed="max">
        <route edges="v22 v21"/>
    </vehicle>
    <vehicle id="67" depart="670.00" departLane="best" departSpeed="max">
        <route edges="-h11 -v12 -h22 -v23"/>
    </vehicle>
    <vehicle id="68" depart="680.00" departLane="best" departSpeed="max">
        <route edges="-h11 v11"/>
    </vehicle>
    <vehicle id="69" depart="690.00" departLane="best" departSpeed="max">
        <route edges="v13 -h22"/>
    </vehicle>
    <vehicle id="70" depart="700.00" departLane="best" departSpeed="max">
        <route edges="-v21 h12 h11"/>
    </vehicle>
    <vehicle id="71" depart="710.00" departLane="best" departSpeed="max">
        <route edges="-v11 -h12 -v22 h22 v12"/>
    </vehicle>
    <vehicle id="72" depart="720.00" departLane="best" departSpeed="max">
        <route edges="-v21 -v22 -h23"/>
    </vehicle>
    <vehicle id="73" depart="730.00" departLane="best" departSpeed="max">
        <route edges="h13 -v22 h22 h21"/>
    </vehicle>
    <vehicle id="74" depart="740.00" departLane="best" departSpeed="max">
        <route edges="-h21 -v13"/>
    </vehicle>
    <vehicle id="75" depart="750.00" departLane="best" departSpeed="max">
        <route edges="v23 h22 h21"/>
    </vehicle>
    <vehicle id="76" depart="760.00" departLane="best" departSpeed="max">
        <route edges="-v21 h12 h11"/>
    </vehicle>
    <vehicle id="77" depart="770.00" departLane="best" departSpeed="max">
        <route edges="-h12 -v22 -h23"/>
    </vehicle>
    <vehicle id="78" depart="780.00" departLane="best" departSpeed="max">
        <route edges="-v11 h11"/>
    </vehicle>
    <vehicle id="79" depart="790.00" departLane="best" departSpeed="max">
        <route edges="-h21 -h22 -h23"/>
    </vehicle>
    <vehicle id="80" depart="800.00" departLane="best" departSpeed="max">
        <route edges="-h11 -v12 h21"/>
    </vehicle>
    <vehicle id="81" depart="810.00" departLane="best" departSpeed="max">
        <route edges="-h21 v12 -h12 v21"/>
    </vehicle>
    <vehicle id="82" depart="820.00" departLane="best" departSpeed="max">
        <route edges="v13 -h22 v22 -h13"/>
    </vehicle>
    <vehicle id="83" depart="830.00" departLane="best" departSpeed="max">
        <route edges="-h21 v12 -h12 -v22 h22 h21"/>
    </vehicle>
    <vehicle id="84" depart="840.00" departLane="best" departSpeed="max">
        <route edges="-h21 -h22 -h23"/>
    </vehicle>
    <vehicle id="85" depart="850.00" departLane="best" departSpeed="max">
        <route edges="v23 h22 v12 h11"/>
    </vehicle>
    <vehicle id="86" depart="860.00" departLane="best" departSpeed="max">
        <route edges="-v21 h12 v11"/>
    </vehicle>
    <vehicle id="87" depart="870.00" departLane="best" departSpeed="max">
        <route edges="v13 -h22 -h23"/>
    </vehicle>
    <vehicle id="88" depart="880.00" departLane="best" departSpeed="max">
        <route edges="-h11 -v12 -h22 -v23"/>
    </vehicle>
    <vehicle id="89" depart="890.00" departLane="best" departSpeed="max">
        <route edges="-v21 -v22 -v23"/>
    </vehicle>
    <vehicle id="90" depart="900.00" departLane="best" departSpeed="max">
        <route edges="h23 h22 h21"/>
    </vehicle>
    <vehicle id="91" depart="910.00" departLane="best" departSpeed="max">
        <route edges="v23 v22 -h13"/>
    </vehicle>
    <vehicle id="92" depart="920.00" departLane="best" departSpeed="max">
        <route edges="-v21 -v22 h22 -v13"/>
    </vehicle>
    <vehicle id="93" depart="930.00" departLane="best" departSpeed="max">
        <route edges="v13 -h22 -h23"/>
    </vehicle>
    <vehicle id="94" depart="940.00" departLane="best" departSpeed="max">
        <route edges="-h21 -h22 -v23"/>
    </vehicle>
    <vehicle id="95" depart="950.00" departLane="best" departSpeed="max">
        <route edges="-v21 -v22 h22 -v13"/>
    </vehicle>
    <vehicle id="96" depart="960.00" departLane="best" departSpeed="max">
        <route edges="-h22 v22 v21"/>
    </vehicle>
    <vehicle id="97" depart="970.00" departLane="best" departSpeed="max">
        <route edges="-v21 h12 v11"/>
    </vehicle>
    <vehicle id="98" depart="980.00" departLane="best" departSpeed="max">
        <route edges="h13 -v22 h22 v12 -h12 -h13"/>
    </vehicle>
    <vehicle id="99" depart="990.00" departLane="best" departSpeed="max">
        <route edges="v23 h22 v12 v11"/>
    </vehicle>
    <vehicle id="100" depart="1000.00" departLane="best" departSpeed="max">
        <route edges="v23 v22 v21"/>
    </vehicle>
    <vehicle id="101" depart="1010.00" departLane="best" departSpeed="max">
        <route edges="v13 -h22 -h23"/>
    </vehicle>
    <vehicle id="102" depart="1020.00" departLane="best" departSpeed="max">
        <route edges="-v21 -v22 -h23"/>
    </vehicle>
    <vehicle id="103" depart="1030.00" departLane="best" departSpeed="max">
        <route edges="-v21 -h13"/>
    </vehicle>
    <vehicle id="104" depart="1040.00" departLane="best" departSpeed="max">
        <route edges="-v21 -v22 h22 v12 -h12 v21"/>
    </vehicle>
    <vehicle id="105" depart="1050.00" departLane="best" departSpeed="max">
        <route edges="-v11 -h12 -v22 h22 v12 v11"/>
    </vehicle>
    <vehicle id="106" depart="1060.00" departLane="best" departSpeed="max">
        <route edges="-v21 -v22 -v23"/>
    </vehicle>
    <vehicle id="107" depart="1070.00" departLane="best" departSpeed="max">
        <route edges="v23 v22"/>
    </vehicle>
    <vehicle id="108" depart="1080.00" departLane="best" departSpeed="max">
        <route edges="h13 -v22 h22 h21"/>
    </vehicle>
    <vehicle id="109" depart="1090.00" departLane="best" departSpeed="max">
        <route edges="-h21 -v13"/>
    </vehicle>
    <vehicle id="110" depart="1100.00" departLane="best" departSpeed="max">
        <route edges="v23 h22 v12 h11"/>
    </vehicle>
    <vehicle id="111" depart="1110.00" departLane="best" departSpeed="max">
        <route edges="h13 -v22 h22"/>
    </vehicle>
    <vehicle id="112" depart="1120.00" departLane="best" departSpeed="max">
        <route edges="-h11 -h12 -v22 h22 v12 h11"/>
    </vehicle>
    <vehicle id="113" depart="1130.00" departLane="best" departSpeed="max">
        <route edges="h12 v11"/>
    </vehicle>
    <vehicle id="114" depart="1140.00" departLane="best" departSpeed="max">
        <route edges="-h21 v12 -h12 v21"/>
    </vehicle>
    <vehicle id="115" depart="1150.00" departLane="best" departSpeed="max">
        <route edges="-h11 -h12 -v22 -h23"/>
    </vehicle>
    <vehicle id="116" depart="1160.00" departLane="best" departSpeed="max">
        <route edges="h13 -v22 h22 h21"/>
    </vehicle>
    <vehicle id="117" depart="1170.00" departLane="best" departSpeed="max">
        <route edges="-h21 v12 -h12 -h13"/>
    </vehicle>
    <vehicle id="118" depart="1180.00" departLane="best" departSpeed="max">
        <route edges="v23 -h23"/>
    </vehicle>
    <vehicle id="119" depart="1190.00" departLane="best" departSpeed="max">
        <route edges="h13 h12"/>
    </vehicle>
    <vehicle id="120" depart="1200.00" departLane="best" departSpeed="max">
        <route edges="-v21 h12 h11"/>
    </vehicle>
    <vehicle id="121" depart="1210.00" departLane="best" departSpeed="max">
        <route edges="h13 v21"/>
    </vehicle>
    <vehicle id="122" depart="1220.00" departLane="best" departSpeed="max">
        <route edges="-h21 v12 -h12 -v22 h22 h21"/>
    </vehicle>
    <vehicle id="123" depart="1230.00" departLane="best" departSpeed="max">
        <route edges="-h21 -h22 -v23"/>
    </vehicle>
    <vehicle id="124" depart="1240.00" departLane="best" departSpeed="max">
        <route edges="h23 h22 -v13"/>
    </vehicle>
    <vehicle id="125" depart="1250.00" departLane="best" departSpeed="max">
        <route edges="-v11 -h12 -v22 h22 v12 v11"/>
    </vehicle>
    <vehicle id="126" depart="1260.00" departLane="best" departSpeed="max">
        <route edges="-h11 -v12 -h22 -v23"/>
    </vehicle>
    <vehicle id="127" depart="1270.00" departLane="best" departSpeed="max">
        <route edges="v23 v22"/>
    </vehicle>
    <vehicle id="128" depart="1280.00" departLane="best" departSpeed="max">
        <route edges="-h11 -h12 -v22 -h23"/>
    </vehicle>
    <vehicle id="129" depart="1290.00" departLane="best" departSpeed="max">
        <route edges="-v11 -h12 v21"/>
    </vehicle>
    <vehicle id="130" depart="1300.00" departLane="best" departSpeed="max">
        <route edges="v22 v21"/>
    </vehicle>
    <vehicle id="131" depart="1310.00" departLane="best" departSpeed="max">
        <route edges="-v12 -h22 -h23"/>
    </vehicle>
    <vehicle id="132" depart="1320.00" departLane="best" departSpeed="max">
        <route edges="v13 h21"/>
    </vehicle>
    <vehicle id="133" depart="1330.00" departLane="best" departSpeed="max">
        <route edges="h13 v21"/>
    </vehicle>
    <vehicle id="134" depart="1340.00" departLane="best" departSpeed="max">
        <route edges="h23 v22 -h13"/>
    </vehicle>
    <vehicle id="135" depart="1350.00" departLane="best" departSpeed="max">
        <route edges="v13 v12 -h12 -v22 h22 -v13"/>
    </vehicle>
    <vehicle id="136" depart="1360.00" departLane="best" departSpeed="max">
        <route edges="h23 v22 v21"/>
    </vehicle>
    <vehicle id="137" depart="1370.00" departLane="best" departSpeed="max">
        <route edges="-h21 v12 -h12 -h13"/>
    </vehicle>
    <vehicle id="138" depart="1380.00" departLane="best" departSpeed="max">
        <route edges="-h11 -h12 -v22 h22 v12 h11"/>
    </vehicle>
    <vehicle id="139" depart="1390.00" departLane="best" departSpeed="max">
        <route edges="-v11 h11"/>
    </vehicle>
    <vehicle id="140" depart="1400.00" departLane="best" departSpeed="max">
        <route edges="h23 h22 v12 -h12 -v22 -h23"/>
    </vehicle>
    <vehicle id="141" depart="1410.00" departLane="best" departSpeed="max">
        <route edges="h23 h22 -v13"/>
    </vehicle>
    <vehicle id="142" depart="1420.00" departLane="best" departSpeed="max">
        <route edges="-v21 -v22 h22 v12 -h12 v21"/>
    </vehicle>
    <vehicle id="143" depart="1430.00" departLane="best" departSpeed="max">
        <route edges="v13 -h22 v22 -h13"/>
    </vehicle>
    <vehicle id="144" depart="1440.00" departLane="best" departSpeed="max">
        <route edges="-v21 -v22 h22 -v13"/>
    </vehicle>
    <vehicle id="145" depart="1450.00" departLane="best" departSpeed="max">
        <route edges="-h11 v11"/>
    </vehicle>
    <vehicle id="146" depart="1460.00" departLane="best" departSpeed="max">
        <route edges="h23 h22 -v13"/>
    </vehicle>
    <vehicle id="147" depart="1470.00" departLane="best" departSpeed="max">
        <route edges="h23 h22 v12 h11"/>
    </vehicle>
    <vehicle id="148" depart="1480.00" departLane="best" departSpeed="max">
        <route edges="-v21 -h13"/>
    </vehicle>
    <vehicle id="149" depart="1490.00" departLane="best" departSpeed="max">
        <route edges="-h11 -h12 v21"/>
    </vehicle>
    <vehicle id="150" depart="1500.00" departLane="best" departSpeed="max">
        <route edges="v23 h22 v12 h11"/>
    </vehicle>
    <vehicle id="151" depart="1510.00" departLane="best" departSpeed="max">
        <route edges="v13 v12 h11"/>
    </vehicle>
    <vehicle id="152" depart="1520.00" departLane="best" departSpeed="max">
        <route edges="-h21 -h22"/>
    </vehicle>
    <vehicle id="153" depart="1530.00" departLane="best" departSpeed="max">
        <route edges="-v11 -h12 v21"/>
    </vehicle>
    <vehicle id="154" depart="1540.00" departLane="best" departSpeed="max">
        <route edges="v13 v12 v11"/>
    </vehicle>
    <vehicle id="155" depart="1550.00" departLane="best" departSpeed="max">
        <route edges="v23 -h23"/>
    </vehicle>
    <vehicle id="156" depart="1560.00" departLane="best" departSpeed="max">
        <route edges="-h22 v22 -h13"/>
    </vehicle>
    <vehicle id="157" depart="1570.00" departLane="best" departSpeed="max">
        <route edges="v13 v12 -h12 v21"/>
    </vehicle>
    <vehicle id="158" depart="1580.00" departLane="best" departSpeed="max">
        <route edges="-v21 h12"/>
    </vehicle>
    <vehicle id="159" depart="1590.00" departLane="best" departSpeed="max">
        <route edges="-h21 v12 -h12 v21"/>
    </vehicle>
    <vehicle id="160" depart="1600.00" departLane="best" departSpeed="max">
        <route edges="v13 v12 -h12 v21"/>
    </vehicle>
    <vehicle id="161" depart="1610.00" departLane="best" departSpeed="max">
        <route edges="v13 v12 -h12 v21"/>
    </vehicle>
    <vehicle id="162" depart="1620.00" departLane="best" departSpeed="max">
        <route edges="-h11 -v12 h21"/>
    </vehicle>
    <vehicle id="163" depart="1630.00" departLane="best" departSpeed="max">
        <route edges="-v11 -h12 v21"/>
    </vehicle>
    <vehicle id="164" depart="1640.00" departLane="best" departSpeed="max">
        <route edges="v13 v12 v11"/>
    </vehicle>
    <vehicle id="165" depart="1650.00" departLane="best" departSpeed="max">
        <route edges="v13 v12 -h12 -v22 h22 -v13"/>
    </vehicle>
    <vehicle id="166" depart="1660.00" departLane="best" departSpeed="max">
        <route edges="v13 -h22 v22 -h13"/>
    </vehicle>
    <vehicle id="167" depart="1670.00" departLane="best" departSpeed="max">
        <route edges="v13 v12 v11"/>
    </vehicle>
    <vehicle id="168" depart="1680.00" departLane="best" departSpeed="max">
        <route edges="-h21 v12 v11"/>
    </vehicle>
    <vehicle id="169" depart="1690.00" departLane="best" departSpeed="max">
        <route edges="-v21 -v22 h22 -v13"/>
    </vehicle>
    <vehicle id="170" depart="1700.00" departLane="best" departSpeed="max">
        <route edges="v13 -h22 -h23"/>
    </vehicle>
    <vehicle id="171" depart="1710.00" departLane="best" departSpeed="max">
        <route edges="-h11 -h12 -v22 -h23"/>
    </vehicle>
    <vehicle id="172" depart="1720.00" departLane="best" departSpeed="max">
        <route edges="-v11 -h12 -v22 h22 v12 v11"/>
    </vehicle>
    <vehicle id="173" depart="1730.00" departLane="best" departSpeed="max">
        <route edges="v23 h22 -v13"/>
    </vehicle>
    <vehicle id="174" depart="1740.00" departLane="best" departSpeed="max">
        <route edges="h23 -v23"/>
    </vehicle>
    <vehicle id="175" depart="1750.00" departLane="best" departSpeed="max">
        <route edges="v23 h22 v12 h11"/>
    </vehicle>
    <vehicle id="176" depart="1760.00" departLane="best" departSpeed="max">
        <route edges="v23 v22 -h13"/>
    </vehicle>
    <vehicle id="177" depart="1770.00" departLane="best" departSpeed="max">
        <route edges="v23 -h23"/>
    </vehicle>
    <vehicle id="178" depart="1780.00" departLane="best" departSpeed="max">
        <route edges="v23 h22 -v13"/>
    </vehicle>
    <vehicle id="179" depart="1790.00" departLane="best" departSpeed="max">
        <route edges="-h11 -v12 -h22 -v23"/>
    </vehicle>
    <vehicle id="180" depart="1800.00" departLane="best" departSpeed="max">
        <route edges="h23 h22 -v13"/>
    </vehicle>
    <vehicle id="181" depart="1810.00" departLane="best" departSpeed="max">
        <route edges="h13 h12 h11"/>
    </vehicle>
    <vehicle id="182" depart="1820.00" departLane="best" departSpeed="max">
        <route edges="-v21 h12 h11"/>
    </vehicle>
    <vehicle id="183" depart="1830.00" departLane="best" departSpeed="max">
        <route edges="-v11 -v12 h21"/>
    </vehicle>
    <vehicle id="184" depart="1840.00" departLane="best" departSpeed="max">
        <route edges="-h11 -h12 v21"/>
    </vehicle>
    <vehicle id="185" depart="1850.00" departLane="best" departSpeed="max">
        <route edges="h13 -v22 h22 h21"/>
    </vehicle>
    <vehicle id="186" depart="1860.00" departLane="best" departSpeed="max">
        <route edges="h23 h22 h21"/>
    </vehicle>
    <vehicle id="187" depart="1870.00" departLane="best" departSpeed="max">
        <route edges="-v11 -h12 -h13"/>
    </vehicle>
    <vehicle id="188" depart="1880.00" departLane="best" departSpeed="max">
        <route edges="h23 h22 -v13"/>
    </vehicle>
    <vehicle id="189" depart="1890.00" departLane="best" departSpeed="max">
        <route edges="-v11 -h12 -v22 h22 v12 v11"/>
    </vehicle>
    <vehicle id="190" depart="1900.00" departLane="best" departSpeed="max">
        <route edges="h23 h22 -v13"/>
    </vehicle>
    <vehicle id="191" depart="1910.00" departLane="best" departSpeed="max">
        <route edges="-v11 -h12 -v22 -v23"/>
    </vehicle>
    <vehicle id="192" depart="1920.00" departLane="best" departSpeed="max">
        <route edges="-v21 -v22 h22 -v13"/>
    </vehicle>
    <vehicle id="193" depart="1930.00" departLane="best" departSpeed="max">
        <route edges="-h21 -h22 -v23"/>
    </vehicle>
    <vehicle id="194" depart="1940.00" departLane="best" departSpeed="max">
        <route edges="v23 h22 h21"/>
    </vehicle>
    <vehicle id="195" depart="1950.00" departLane="best" departSpeed="max">
        <route edges="v23 h22 v12 h11"/>
    </vehicle>
    <vehicle id="196" depart="1960.00" departLane="best" departSpeed="max">
        <route edges="-v11 h11"/>
    </vehicle>
    <vehicle id="197" depart="1970.00" departLane="best" departSpeed="max">
        <route edges="-h11 -v12 -v13"/>
    </vehicle>
    <vehicle id="198" depart="1980.00" departLane="best" departSpeed="max">
        <route edges="-v21 h12 h11"/>
    </vehicle>
    <vehicle id="199" depart="1990.00" departLane="best" departSpeed="max">
        <route edges="h23 -v23"/>
    </vehicle>
    <vehicle id="200" depart="2000.00" departLane="best" departSpeed="max">
        <route edges="-v21 -v22 -h23"/>
    </vehicle>
    <vehicle id="201" depart="2010.00" departLane="best" departSpeed="max">
        <route edges="-v21 -v22 h22 v12 -h12 v21"/>
    </vehicle>
    <vehicle id="202" depart="2020.00" departLane="best" departSpeed="max">
        <route edges="v13 -h22 -h23"/>
    </vehicle>
    <vehicle id="203" depart="2030.00" departLane="best" departSpeed="max">
        <route edges="-h11 -h12 -v22 h22 v12 h11"/>
    </vehicle>
    <vehicle id="204" depart="2040.00" departLane="best" departSpeed="max">
        <route edges="h23 h22 -v13"/>
    </vehicle>
    <vehicle id="205" depart="2050.00" departLane="best" departSpeed="max">
        <route edges="v13 v12 v11"/>
    </vehicle>
    <vehicle id="206" depart="2060.00" departLane="best" departSpeed="max">
        <route edges="h23 h22 v12 -h12 -v22 -h23"/>
    </vehicle>
    <vehicle id="207" depart="2070.00" departLane="best" departSpeed="max">
        <route edges="-h21 v12 -h12 -h13"/>
    </vehicle>
    <vehicle id="208" depart="2080.00" departLane="best" departSpeed="max">
        <route edges="-h22 -v23"/>
    </vehicle>
    <vehicle id="209" depart="2090.00" departLane="best" departSpeed="max">
        <route edges="v13 -h22 v22 -h13"/>
    </vehicle>
    <vehicle id="210" depart="2100.00" departLane="best" departSpeed="max">
        <route edges="-v21 h12 -v12 h21"/>
    </vehicle>
    <vehicle id="211" depart="2110.00" departLane="best" departSpeed="max">
        <route edges="-h21 v12 -h12 -v22 h22 h21"/>
    </vehicle>
    <vehicle id="212" depart="2120.00" departLane="best" departSpeed="max">
        <route edges="-v22 -h23"/>
    </vehicle>
    <vehicle id="213" depart="2130.00" departLane="best" departSpeed="max">
        <route edges="h23 h22 v12 -h12"/>
    </vehicle>
    <vehicle id="214" depart="2140.00" departLane="best" departSpeed="max">
        <route edges="v12 v11"/>
    </vehicle>
    <vehicle id="215" depart="2150.00" departLane="best" departSpeed="max">
        <route edges="-h11 -v12 -h22 -v23"/>
    </vehicle>
    <vehicle id="216" depart="2160.00" departLane="best" departSpeed="max">
        <route edges="-h21 v12 -h12 v21"/>
    </vehicle>
    <vehicle id="217" depart="2170.00" departLane="best" departSpeed="max">
        <route edges="h13 -v22 h22 v12 -h12 -h13"/>
    </vehicle>
    <vehicle id="218" depart="2180.00" departLane="best" departSpeed="max">
        <route edges="-h22 v22 h12 v11"/>
    </vehicle>
    <vehicle id="219" depart="2190.00" departLane="best" departSpeed="max">
        <route edges="-v21 h12 v11"/>
    </vehicle>