<?xml version="1.0" encoding="UTF-8"?>

<!-- generated on 2023-03-07 23:09:56.390390 by randomTrips.py v1_15_0+0002-e6790248698
<configuration>
    <end value="100000"/>
    <fringe-factor value="20"/>
    <net-file value="nets/2way-single-intersection/single-intersection.net.xml"/>
    <period value="6.0"/>
    <route-file value="single-random.rou.xml"/>
</configuration>
-->

<!-- generated on 2023-03-07 23:09:55 by Eclipse SUMO duarouter Version 1.15.0
<configuration xmlns:xsi="http://www.w3.org/2001/XMLSchema-instance" xsi:noNamespaceSchemaLocation="http://sumo.dlr.de/xsd/duarouterConfiguration.xsd">

    <input>
        <net-file value="nets/2way-single-intersection/single-intersection.net.xml"/>
        <route-files value="trips.trips.xml"/>
    </input>

    <output>
        <output-file value="single-random.rou.xml"/>
        <alternatives-output value="NUL"/>
    </output>

    <time>
        <begin value="0"/>
        <end value="100000"/>
    </time>

    <report>
        <no-warnings value="true"/>
        <ignore-errors value="true"/>
        <no-step-log value="true"/>
    </report>

</configuration>
-->

<routes xmlns:xsi="http://www.w3.org/2001/XMLSchema-instance" xsi:noNamespaceSchemaLocation="http://sumo.dlr.de/xsd/routes_file.xsd">
    <vehicle id="0" depart="0.00">
        <route edges="s_t t_e"/>
    </vehicle>
    <vehicle id="1" depart="6.00">
        <route edges="n_t t_e"/>
    </vehicle>
    <vehicle id="2" depart="12.00">
        <route edges="s_t t_e e_t t_s"/>
    </vehicle>
    <vehicle id="3" depart="18.00">
        <route edges="w_t t_e"/>
    </vehicle>
    <vehicle id="4" depart="24.00">
        <route edges="n_t t_e"/>
    </vehicle>
    <vehicle id="5" depart="30.00">
        <route edges="e_t t_s"/>
    </vehicle>
    <vehicle id="6" depart="36.00">
        <route edges="e_t t_s s_t t_e"/>
    </vehicle>
    <vehicle id="7" depart="42.00">
        <route edges="s_t t_e e_t t_s"/>
    </vehicle>
    <vehicle id="8" depart="48.00">
        <route edges="e_t t_s"/>
    </vehicle>
    <vehicle id="9" depart="54.00">
        <route edges="w_t t_e"/>
    </vehicle>
    <vehicle id="10" depart="60.00">
        <route edges="w_t t_s"/>
    </vehicle>
    <vehicle id="11" depart="66.00">
        <route edges="n_t t_e"/>
    </vehicle>
    <vehicle id="12" depart="72.00">
        <route edges="w_t t_n"/>
    </vehicle>
    <vehicle id="13" depart="78.00">
        <route edges="e_t t_s s_t t_e"/>
    </vehicle>
    <vehicle id="14" depart="84.00">
        <route edges="w_t t_s"/>
    </vehicle>
    <vehicle id="15" depart="90.00">
        <route edges="w_t t_s"/>
    </vehicle>
    <vehicle id="16" depart="96.00">
        <route edges="s_t t_w"/>
    </vehicle>
    <vehicle id="17" depart="102.00">
        <route edges="n_t t_s"/>
    </vehicle>
    <vehicle id="18" depart="108.00">
        <route edges="w_t t_s"/>
    </vehicle>
    <vehicle id="19" depart="114.00">
        <route edges="w_t t_s"/>
    </vehicle>
    <vehicle id="20" depart="120.00">
        <route edges="s_t t_e"/>
    </vehicle>
    <vehicle id="21" depart="126.00">
        <route edges="e_t t_n"/>
    </vehicle>
    <vehicle id="22" depart="132.00">
        <route edges="e_t t_s s_t t_e"/>
    </vehicle>
    <vehicle id="23" depart="138.00">
        <route edges="e_t t_n"/>
    </vehicle>
    <vehicle id="24" depart="144.00">
        <route edges="s_t t_n"/>
    </vehicle>
    <vehicle id="25" depart="150.00">
        <route edges="n_t t_e"/>
    </vehicle>
    <vehicle id="26" depart="156.00">
        <route edges="n_t t_w"/>
    </vehicle>
    <vehicle id="27" depart="162.00">
        <route edges="s_t t_e e_t t_s"/>
    </vehicle>
    <vehicle id="28" depart="168.00">
        <route edges="e_t t_s"/>
    </vehicle>
    <vehicle id="29" depart="174.00">
        <route edges="e_t t_n"/>
    </vehicle>
    <vehicle id="30" depart="180.00">
        <route edges="w_t t_s"/>
    </vehicle>
    <vehicle id="31" depart="186.00">
        <route edges="s_t t_e e_t t_s"/>
    </vehicle>
    <vehicle id="32" depart="192.00">
        <route edges="w_t t_n n_t t_w"/>
    </vehicle>
    <vehicle id="33" depart="198.00">
        <route edges="e_t t_s s_t t_e"/>
    </vehicle>
    <vehicle id="34" depart="204.00">
        <route edges="n_t t_e e_t t_n"/>
    </vehicle>
    <vehicle id="35" depart="210.00">
        <route edges="e_t t_w"/>
    </vehicle>
    <vehicle id="36" depart="216.00">
        <route edges="w_t t_n"/>
    </vehicle>
    <vehicle id="37" depart="222.00">
        <route edges="s_t t_n"/>
    </vehicle>
    <vehicle id="38" depart="228.00">
        <route edges="w_t t_n"/>
    </vehicle>
    <vehicle id="39" depart="234.00">
        <route edges="n_t t_e"/>
    </vehicle>
    <vehicle id="40" depart="240.00">
        <route edges="s_t t_n"/>
    </vehicle>
    <vehicle id="41" depart="246.00">
        <route edges="s_t t_w"/>
    </vehicle>
    <vehicle id="42" depart="252.00">
        <route edges="n_t t_e"/>
    </vehicle>
    <vehicle id="43" depart="258.00">
        <route edges="w_t t_s"/>
    </vehicle>
    <vehicle id="44" depart="264.00">
        <route edges="e_t t_s s_t t_e"/>
    </vehicle>
    <vehicle id="45" depart="270.00">
        <route edges="e_t t_s"/>
    </vehicle>
    <vehicle id="46" depart="276.00">
        <route edges="w_t t_n"/>
    </vehicle>
    <vehicle id="47" depart="282.00">
        <route edges="e_t t_n"/>
    </vehicle>
    <vehicle id="48" depart="288.00">
        <route edges="w_t t_s"/>
    </vehicle>
    <vehicle id="49" depart="294.00">
        <route edges="w_t t_n n_t t_w"/>
    </vehicle>
    <vehicle id="50" depart="300.00">
        <route edges="e_t t_s"/>
    </vehicle>
    <vehicle id="51" depart="306.00">
        <route edges="s_t t_e e_t t_s"/>
    </vehicle>
    <vehicle id="52" depart="312.00">
        <route edges="n_t t_s"/>
    </vehicle>
    <vehicle id="53" depart="318.00">
        <route edges="e_t t_n"/>
    </vehicle>
    <vehicle id="54" depart="324.00">
        <route edges="n_t t_w"/>
    </vehicle>
    <vehicle id="55" depart="330.00">
        <route edges="w_t t_n"/>
    </vehicle>
    <vehicle id="56" depart="336.00">
        <route edges="s_t t_e"/>
    </vehicle>
    <vehicle id="57" depart="342.00">
        <route edges="w_t t_n n_t t_w"/>
    </vehicle>
    <vehicle id="58" depart="348.00">
        <route edges="n_t t_s"/>
    </vehicle>
    <vehicle id="59" depart="354.00">
        <route edges="s_t t_e"/>
    </vehicle>
    <vehicle id="60" depart="360.00">
        <route edges="w_t t_s"/>
    </vehicle>
    <vehicle id="61" depart="366.00">
        <route edges="w_t t_s"/>
    </vehicle>
    <vehicle id="62" depart="372.00">
        <route edges="e_t t_n"/>
    </vehicle>
    <vehicle id="63" depart="378.00">
        <route edges="e_t t_w"/>
    </vehicle>
    <vehicle id="64" depart="384.00">
        <route edges="w_t t_n n_t t_w"/>
    </vehicle>
    <vehicle id="65" depart="390.00">
        <route edges="n_t t_e"/>
    </vehicle>
    <vehicle id="66" depart="396.00">
        <route edges="w_t t_n n_t t_w"/>
    </vehicle>
    <vehicle id="67" depart="402.00">
        <route edges="e_t t_n"/>
    </vehicle>
    <vehicle id="68" depart="408.00">
        <route edges="e_t t_w"/>
    </vehicle>
    <vehicle id="69" depart="414.00">
        <route edges="w_t t_e"/>
    </vehicle>
    <vehicle id="70" depart="420.00">
        <route edges="n_t t_s"/>
    </vehicle>
    <vehicle id="71" depart="426.00">
        <route edges="n_t t_w"/>
    </vehicle>
    <vehicle id="72" depart="432.00">
        <route edges="n_t t_e"/>
    </vehicle>
    <vehicle id="73" depart="438.00">
        <route edges="s_t t_e e_t t_s"/>
    </vehicle>
    <vehicle id="74" depart="444.00">
        <route edges="e_t t_n"/>
    </vehicle>
    <vehicle id="75" depart="450.00">
        <route edges="w_t t_s"/>
    </vehicle>
    <vehicle id="76" depart="456.00">
        <route edges="n_t t_s"/>
    </vehicle>
    <vehicle id="77" depart="462.00">
        <route edges="e_t t_s s_t t_e"/>
    </vehicle>
    <vehicle id="78" depart="468.00">
        <route edges="n_t t_s"/>
    </vehicle>
    <vehicle id="79" depart="474.00">
        <route edges="e_t t_s s_t t_e"/>
    </vehicle>
    <vehicle id="80" depart="480.00">
        <route edges="e_t t_s"/>
    </vehicle>
    <vehicle id="81" depart="486.00">
        <route edges="e_t t_w"/>
    </vehicle>
    <vehicle id="82" depart="492.00">
        <route edges="w_t t_e"/>
    </vehicle>
    <vehicle id="83" depart="498.00">
        <route edges="e_t t_s"/>
    </vehicle>
    <vehicle id="84" depart="504.00">
        <route edges="e_t t_s s_t t_e"/>
    </vehicle>
    <vehicle id="85" depart="510.00">
        <route edges="w_t t_s"/>
    </vehicle>
    <vehicle id="86" depart="516.00">
        <route edges="n_t t_w"/>
    </vehicle>
    <vehicle id="87" depart="522.00">
        <route edges="w_t t_e"/>
    </vehicle>
    <vehicle id="88" depart="528.00">
        <route edges="e_t t_n"/>
    </vehicle>
    <vehicle id="89" depart="534.00">
        <route edges="n_t t_e e_t t_n"/>
    </vehicle>
    <vehicle id="90" depart="540.00">
        <route edges="s_t t_e e_t t_s"/>
    </vehicle>
    <vehicle id="91" depart="546.00">
        <route edges="w_t t_e"/>
    </vehicle>
    <vehicle id="92" depart="552.00">
        <route edges="n_t t_e e_t t_n"/>
    </vehicle>
    <vehicle id="93" depart="558.00">
        <route edges="w_t t_e"/>
    </vehicle>
    <vehicle id="94" depart="564.00">
        <route edges="e_t t_n"/>
    </vehicle>
    <vehicle id="95" depart="570.00">
        <route edges="n_t t_e e_t t_n"/>
    </vehicle>
    <vehicle id="96" depart="576.00">
        <route edges="e_t t_w"/>
    </vehicle>
    <vehicle id="97" depart="582.00">
        <route edges="n_t t_w"/>
    </vehicle>
    <vehicle id="98" depart="588.00">
        <route edges="s_t t_e"/>
    </vehicle>
    <vehicle id="99" depart="594.00">
        <route edges="w_t t_n n_t t_w"/>
    </vehicle>
    <vehicle id="100" depart="600.00">
        <route edges="w_t t_n n_t t_w"/>
    </vehicle>
    <vehicle id="101" depart="606.00">
        <route edges="w_t t_e"/>
    </vehicle>
    <vehicle id="102" depart="612.00">
        <route edges="n_t t_e"/>
    </vehicle>
    <vehicle id="103" depart="618.00">
        <route edges="n_t t_e"/>
    </vehicle>
    <vehicle id="104" depart="624.00">
        <route edges="n_t t_w"/>
    </vehicle>
    <vehicle id="105" depart="630.00">
        <route edges="n_t t_w"/>
    </vehicle>
    <vehicle id="106" depart="636.00">
        <route edges="n_t t_e e_t t_n"/>
    </vehicle>
    <vehicle id="107" depart="642.00">
        <route edges="w_t t_n n_t t_w"/>
    </vehicle>
    <vehicle id="108" depart="648.00">
        <route edges="s_t t_e e_t t_s"/>
    </vehicle>
    <vehicle id="109" depart="654.00">
        <route edges="e_t t_n"/>
    </vehicle>
    <vehicle id="110" depart="660.00">
        <route edges="w_t t_s"/>
    </vehicle>
    <vehicle id="111" depart="666.00">
        <route edges="s_t t_e e_t t_s"/>
    </vehicle>
    <vehicle id="112" depart="672.00">
        <route edges="e_t t_s"/>
    </vehicle>
    <vehicle id="113" depart="678.00">
        <route edges="s_t t_w"/>
    </vehicle>
    <vehicle id="114" depart="684.00">
        <route edges="e_t t_w"/>
    </vehicle>
    <vehicle id="115" depart="690.00">
        <route edges="e_t t_s s_t t_e"/>
    </vehicle>
    <vehicle id="116" depart="696.00">
        <route edges="s_t t_e e_t t_s"/>
    </vehicle>
    <vehicle id="117" depart="702.00">
        <route edges="e_t t_s s_t t_e"/>
    </vehicle>
    <vehicle id="118" depart="708.00">
        <route edges="w_t t_e"/>
    </vehicle>
    <vehicle id="119" depart="714.00">
        <route edges="s_t t_e e_t t_s"/>
    </vehicle>
    <vehicle id="120" depart="720.00">
        <route edges="n_t t_s"/>
    </vehicle>
    <vehicle id="121" depart="726.00">
        <route edges="s_t t_w"/>
    </vehicle>
    <vehicle id="122" depart="732.00">
        <route edges="e_t t_s"/>
    </vehicle>
    <vehicle id="123" depart="738.00">
        <route edges="e_t t_n"/>
    </vehicle>
    <vehicle id="124" depart="744.00">
        <route edges="s_t t_n"/>
    </vehicle>
    <vehicle id="125" depart="750.00">
        <route edges="n_t t_w"/>
    </vehicle>
    <vehicle id="126" depart="756.00">
        <route edges="e_t t_n"/>
    </vehicle>
    <vehicle id="127" depart="762.00">
        <route edges="w_t t_n n_t t_w"/>
    </vehicle>
    <vehicle id="128" depart="768.00">
        <route edges="e_t t_s s_t t_e"/>
    </vehicle>
    <vehicle id="129" depart="774.00">
        <route edges="n_t t_w"/>
    </vehicle>
    <vehicle id="130" depart="780.00">
        <route edges="w_t t_n n_t t_w"/>
    </vehicle>
    <vehicle id="131" depart="786.00">
        <route edges="n_t t_e"/>
    </vehicle>
    <vehicle id="132" depart="792.00">
        <route edges="w_t t_s"/>
    </vehicle>
    <vehicle id="133" depart="798.00">
        <route edges="s_t t_w"/>
    </vehicle>
    <vehicle id="134" depart="804.00">
        <route edges="s_t t_e"/>
    </vehicle>
    <vehicle id="135" depart="810.00">
        <route edges="w_t t_n"/>
    </vehicle>
    <vehicle id="136" depart="816.00">
        <route edges="s_t t_w"/>
    </vehicle>
    <vehicle id="137" depart="822.00">
        <route edges="e_t t_s s_t t_e"/>
    </vehicle>
    <vehicle id="138" depart="828.00">
        <route edges="e_t t_s"/>
    </vehicle>
    <vehicle id="139" depart="834.00">
        <route edges="n_t t_s"/>
    </vehicle>
    <vehicle id="140" depart="840.00">
        <route edges="s_t t_e"/>
    </vehicle>
    <vehicle id="141" depart="846.00">
        <route edges="s_t t_n"/>
    </vehicle>
    <vehicle id="142" depart="852.00">
        <route edges="n_t t_w"/>
    </vehicle>
    <vehicle id="143" depart="858.00">
        <route edges="w_t t_e"/>
    </vehicle>
    <vehicle id="144" depart="864.00">
        <route edges="n_t t_e e_t t_n"/>
    </vehicle>
    <vehicle id="145" depart="870.00">
        <route edges="e_t t_w"/>
    </vehicle>
    <vehicle id="146" depart="876.00">
        <route edges="s_t t_n"/>
    </vehicle>
    <vehicle id="147" depart="882.00">
        <route edges="s_t t_e e_t t_s"/>
    </vehicle>
    <vehicle id="148" depart="888.00">
        <route edges="n_t t_e"/>
    </vehicle>
    <vehicle id="149" depart="894.00">
        <route edges="e_t t_w"/>
    </vehicle>
    <vehicle id="150" depart="900.00">
        <route edges="w_t t_s"/>
    </vehicle>
    <vehicle id="151" depart="906.00">
        <route edges="w_t t_s"/>
    </vehicle>
    <vehicle id="152" depart="912.00">
        <route edges="e_t t_s s_t t_e"/>
    </vehicle>
    <vehicle id="153" depart="918.00">
        <route edges="n_t t_w"/>
    </vehicle>
    <vehicle id="154" depart="924.00">
        <route edges="w_t t_n n_t t_w"/>
    </vehicle>
    <vehicle id="155" depart="930.00">
        <route edges="w_t t_e"/>
    </vehicle>
    <vehicle id="156" depart="936.00">
        <route edges="e_t t_s s_t t_e"/>
    </vehicle>
    <vehicle id="157" depart="942.00">
        <route edges="w_t t_n n_t t_w"/>
    </vehicle>
    <vehicle id="158" depart="948.00">
        <route edges="n_t t_s"/>
    </vehicle>
    <vehicle id="159" depart="954.00">
        <route edges="e_t t_w"/>
    </vehicle>
    <vehicle id="160" depart="960.00">
        <route edges="w_t t_n n_t t_w"/>
    </vehicle>
    <vehicle id="161" depart="966.00">
        <route edges="w_t t_n n_t t_w"/>
    </vehicle>
    <vehicle id="162" depart="972.00">
        <route edges="e_t t_s"/>
    </vehicle>
    <vehicle id="163" depart="978.00">
        <route edges="n_t t_w"/>
    </vehicle>
    <vehicle id="164" depart="984.00">
        <route edges="w_t t_n n_t t_w"/>
    </vehicle>
    <vehicle id="165" depart="990.00">
        <route edges="w_t t_n"/>
    </vehicle>
    <vehicle id="166" depart="996.00">
        <route edges="w_t t_e"/>
    </vehicle>
    <vehicle id="167" depart="1002.00">
        <route edges="w_t t_n n_t t_w"/>
    </vehicle>
    <vehicle id="168" depart="1008.00">
        <route edges="e_t t_w"/>
    </vehicle>
    <vehicle id="169" depart="1014.00">
        <route edges="n_t t_e e_t t_n"/>
    </vehicle>
    <vehicle id="170" depart="1020.00">
        <route edges="w_t t_e"/>
    </vehicle>
    <vehicle id="171" depart="1026.00">
        <route edges="e_t t_s s_t t_e"/>
    </vehicle>
    <vehicle id="172" depart="1032.00">
        <route edges="n_t t_w"/>
    </vehicle>
    <vehicle id="173" depart="1038.00">
        <route edges="w_t t_n"/>
    </vehicle>
    <vehicle id="174" depart="1044.00">
        <route edges="s_t t_n"/>
    </vehicle>
    <vehicle id="175" depart="1050.00">
        <route edges="w_t t_s"/>
    </vehicle>
    <vehicle id="176" depart="1056.00">
        <route edges="w_t t_e"/>
    </vehicle>
    <vehicle id="177" depart="1062.00">
        <route edges="w_t t_e"/>
    </vehicle>
    <vehicle id="178" depart="1068.00">
        <route edges="w_t t_n"/>
    </vehicle>
    <vehicle id="179" depart="1074.00">
        <route edges="e_t t_n"/>
    </vehicle>
    <vehicle id="180" depart="1080.00">
        <route edges="s_t t_n"/>
    </vehicle>
    <vehicle id="181" depart="1086.00">
        <route edges="s_t t_e e_t t_s"/>
    </vehicle>
    <vehicle id="182" depart="1092.00">
        <route edges="n_t t_s"/>
    </vehicle>
    <vehicle id="183" depart="1098.00">
        <route edges="n_t t_s"/>
    </vehicle>
    <vehicle id="184" depart="1104.00">
        <route edges="e_t t_w"/>
    </vehicle>
    <vehicle id="185" depart="1110.00">
        <route edges="s_t t_e e_t t_s"/>
    </vehicle>
    <vehicle id="186" depart="1116.00">
        <route edges="s_t t_e e_t t_s"/>
    </vehicle>
    <vehicle id="187" depart="1122.00">
        <route edges="n_t t_e"/>
    </vehicle>
    <vehicle id="188" depart="1128.00">
        <route edges="s_t t_n"/>
    </vehicle>
    <vehicle id="189" depart="1134.00">
        <route edges="n_t t_w"/>
    </vehicle>
    <vehicle id="190" depart="1140.00">
        <route edges="s_t t_n"/>
    </vehicle>
    <vehicle id="191" depart="1146.00">
        <route edges="n_t t_e e_t t_n"/>
    </vehicle>
    <vehicle id="192" depart="1152.00">
        <route edges="n_t t_e e_t t_n"/>
    </vehicle>
    <vehicle id="193" depart="1158.00">
        <route edges="e_t t_n"/>
    </vehicle>
    <vehicle id="194" depart="1164.00">
        <route edges="w_t t_s"/>
    </vehicle>
    <vehicle id="195" depart="1170.00">
        <route edges="w_t t_s"/>
    </vehicle>
    <vehicle id="196" depart="1176.00">
        <route edges="n_t t_s"/>
    </vehicle>
    <vehicle id="197" depart="1182.00">
        <route edges="e_t t_n"/>
    </vehicle>
    <vehicle id="198" depart="1188.00">
        <route edges="n_t t_s"/>
    </vehicle>
    <vehicle id="199" depart="1194.00">
        <route edges="s_t t_n"/>
    </vehicle>
    <vehicle id="200" depart="1200.00">
        <route edges="n_t t_e"/>
    </vehicle>
    <vehicle id="201" depart="1206.00">
        <route edges="n_t t_w"/>
    </vehicle>
    <vehicle id="202" depart="1212.00">
        <route edges="w_t t_e"/>
    </vehicle>
    <vehicle id="203" depart="1218.00">
        <route edges="e_t t_s"/>
    </vehicle>
    <vehicle id="204" depart="1224.00">
        <route edges="s_t t_n"/>
    </vehicle>
    <vehicle id="205" depart="1230.00">
        <route edges="w_t t_n n_t t_w"/>
    </vehicle>
    <vehicle id="206" depart="1236.00">
        <route edges="s_t t_e"/>
    </vehicle>
    <vehicle id="207" depart="1242.00">
        <route edges="e_t t_s s_t t_e"/>
    </vehicle>
    <vehicle id="208" depart="1248.00">
        <route edges="e_t t_n"/>
    </vehicle>
    <vehicle id="209" depart="1254.00">
        <route edges="w_t t_e"/>
    </vehicle>
    <vehicle id="210" depart="1260.00">
        <route edges="n_t t_s"/>
    </vehicle>
    <vehicle id="211" depart="1266.00">
        <route edges="e_t t_s"/>
    </vehicle>
    <vehicle id="212" depart="1272.00">
        <route edges="n_t t_e"/>
    </vehicle>
    <vehicle id="213" depart="1278.00">
        <route edges="s_t t_e"/>
    </vehicle>
    <vehicle id="214" depart="1284.00">
        <route edges="w_t t_n n_t t_w"/>
    </vehicle>
    <vehicle id="215" depart="1290.00">
        <route edges="e_t t_n"/>
    </vehicle>
    <vehicle id="216" depart="1296.00">
        <route edges="e_t t_w"/>
    </vehicle>
    <vehicle id="217" depart="1302.00">
        <route edges="s_t t_e"/>
    </vehicle>
    <vehicle id="218" depart="1308.00">
        <route edges="e_t t_w"/>
    </vehicle>
    <vehicle id="219" depart="1314.00">
        <route edges="n_t t_w"/>
    </vehicle>
    <vehicle id="220" depart="1320.00">
        <route edges="s_t t_w"/>
    </vehicle>
    <vehicle id="221" depart="1326.00">
        <route edges="s_t t_w"/>
    </vehicle>
    <vehicle id="222" depart="1332.00">
        <route edges="w_t t_s"/>
    </vehicle>
    <vehicle id="223" depart="1338.00">
        <route edges="s_t t_e e_t t_s"/>
    </vehicle>
    <vehicle id="224" depart="1344.00">
        <route edges="w_t t_s"/>
    </vehicle>
    <vehicle id="225" depart="1350.00">
        <route edges="w_t t_s"/>
    </vehicle>
    <vehicle id="226" depart="1356.00">
        <route edges="n_t t_e e_t t_n"/>
    </vehicle>
    <vehicle id="227" depart="1362.00">
        <route edges="e_t t_s"/>
    </vehicle>
    <vehicle id="228" depart="1368.00">
        <route edges="w_t t_s"/>
    </vehicle>
    <vehicle id="229" depart="1374.00">
        <route edges="s_t t_n"/>
    </vehicle>
    <vehicle id="230" depart="1380.00">
        <route edges="e_t t_n"/>
    </vehicle>
    <vehicle id="231" depart="1386.00">
        <route edges="n_t t_e e_t t_n"/>
    </vehicle>
    <vehicle id="232" depart="1392.00">
        <route edges="s_t t_e"/>
    </vehicle>
    <vehicle id="233" depart="1398.00">
        <route edges="e_t t_s"/>
    </vehicle>
    <vehicle id="234" depart="1404.00">
        <route edges="s_t t_e"/>
    </vehicle>
    <vehicle id="235" depart="1410.00">
        <route edges="n_t t_s"/>
    </vehicle>
    <vehicle id="236" depart="1416.00">
        <route edges="n_t t_e"/>
    </vehicle>
    <vehicle id="237" depart="1422.00">
        <route edges="n_t t_w"/>
    </vehicle>
    <vehicle id="238" depart="1428.00">
        <route edges="s_t t_e e_t t_s"/>
    </vehicle>
    <vehicle id="239" depart="1434.00">
        <route edges="w_t t_n n_t t_w"/>
    </vehicle>
    <vehicle id="240" depart="1440.00">
        <route edges="n_t t_e"/>
    </vehicle>
    <vehicle id="241" depart="1446.00">
        <route edges="n_t t_w"/>
    </vehicle>
    <vehicle id="242" depart="1452.00">
        <route edges="w_t t_n n_t t_w"/>
    </vehicle>
    <vehicle id="243" depart="1458.00">
        <route edges="n_t t_s"/>
    </vehicle>
    <vehicle id="244" depart="1464.00">
        <route edges="s_t t_e e_t t_s"/>
    </vehicle>
    <vehicle id="245" depart="1470.00">
        <route edges="e_t t_s s_t t_e"/>
    </vehicle>
    <vehicle id="246" depart="1476.00">
        <route edges="n_t t_e"/>
    </vehicle>
    <vehicle id="247" depart="1482.00">
        <route edges="n_t t_s"/>
    </vehicle>
    <vehicle id="248" depart="1488.00">
        <route edges="n_t t_e"/>
    </vehicle>
    <vehicle id="249" depart="1494.00">
        <route edges="n_t t_e"/>
    </vehicle>
    <vehicle id="250" depart="1500.00">
        <route edges="s_t t_e"/>
    </vehicle>
    <vehicle id="251" depart="1506.00">
        <route edges="n_t t_s"/>
    </vehicle>
    <vehicle id="252" depart="1512.00">
        <route edges="e_t t_s"/>
    </vehicle>
    <vehicle id="253" depart="1518.00">
        <route edges="e_t t_n"/>
    </vehicle>
    <vehicle id="254" depart="1524.00">
        <route edges="e_t t_n"/>
    </vehicle>
    <vehicle id="255" depart="1530.00">
        <route edges="e_t t_n"/>
    </vehicle>
    <vehicle id="256" depart="1536.00">
        <route edges="w_t t_n"/>
    </vehicle>
    <vehicle id="257" depart="1542.00">
        <route edges="w_t t_n n_t t_w"/>
    </vehicle>
    <vehicle id="258" depart="1548.00">
        <route edges="n_t t_e"/>
    </vehicle>
    <vehicle id="259" depart="1554.00">
        <route edges="e_t t_s"/>
    </vehicle>
    <vehicle id="260" depart="1560.00">
        <route edges="w_t t_n"/>
    </vehicle>
    <vehicle id="261" depart="1566.00">
        <route edges="s_t t_w"/>
    </vehicle>
    <vehicle id="262" depart="1572.00">
        <route edges="s_t t_w"/>
    </vehicle>
    <vehicle id="263" depart="1578.00">
        <route edges="w_t t_e"/>
    </vehicle>
    <vehicle id="264" depart="1584.00">
        <route edges="e_t t_s s_t t_e"/>
    </vehicle>
    <vehicle id="265" depart="1590.00">
        <route edges="e_t t_s"/>
    </vehicle>
    <vehicle id="266" depart="1596.00">
        <route edges="s_t t_e"/>
    </vehicle>
    <vehicle id="267" depart="1602.00">
        <route edges="s_t t_w"/>
    </vehicle>
    <vehicle id="268" depart="1608.00">
        <route edges="e_t t_s"/>
    </vehicle>
    <vehicle id="269" depart="1614.00">
        <route edges="s_t t_e"/>
    </vehicle>
    <vehicle id="270" depart="1620.00">
        <route edges="w_t t_n n_t t_w"/>
    </vehicle>
    <vehicle id="271" depart="1626.00">
        <route edges="e_t t_s s_t t_e"/>
    </vehicle>
    <vehicle id="272" depart="1632.00">
        <route edges="n_t t_s"/>
    </vehicle>
    <vehicle id="273" depart="1638.00">
        <route edges="w_t t_n"/>
    </vehicle>
    <vehicle id="274" depart="1644.00">
        <route edges="s_t t_e"/>
    </vehicle>
    <vehicle id="275" depart="1650.00">
        <route edges="s_t t_e e_t t_s"/>
    </vehicle>
    <vehicle id="276" depart="1656.00">
        <route edges="e_t t_w"/>
    </vehicle>
    <vehicle id="277" depart="1662.00">
        <route edges="w_t t_s"/>
    </vehicle>
    <vehicle id="278" depart="1668.00">
        <route edges="e_t t_w"/>
    </vehicle>
    <vehicle id="279" depart="1674.00">
        <route edges="w_t t_n"/>
    </vehicle>
    <vehicle id="280" depart="1680.00">
        <route edges="n_t t_e e_t t_n"/>
    </vehicle>
    <vehicle id="281" depart="1686.00">
        <route edges="s_t t_n"/>
    </vehicle>
    <vehicle id="282" depart="1692.00">
        <route edges="w_t t_n n_t t_w"/>
    </vehicle>
    <vehicle id="283" depart="1698.00">
        <route edges="e_t t_w"/>
    </vehicle>
    <vehicle id="284" depart="1704.00">
        <route edges="s_t t_w"/>
    </vehicle>
    <vehicle id="285" depart="1710.00">
        <route edges="s_t t_n"/>
    </vehicle>
    <vehicle id="286" depart="1716.00">
        <route edges="s_t t_w"/>
    </vehicle>
    <vehicle id="287" depart="1722.00">
        <route edges="n_t t_w"/>
    </vehicle>
    <vehicle id="288" depart="1728.00">
        <route edges="s_t t_n"/>
    </vehicle>
    <vehicle id="289" depart="1734.00">
        <route edges="n_t t_s"/>
    </vehicle>
    <vehicle id="290" depart="1740.00">
        <route edges="n_t t_w"/>
    </vehicle>
    <vehicle id="291" depart="1746.00">
        <route edges="w_t t_e"/>
    </vehicle>
    <vehicle id="292" depart="1752.00">
        <route edges="w_t t_e"/>
    </vehicle>
    <vehicle id="293" depart="1758.00">
        <route edges="n_t t_s"/>
    </vehicle>
    <vehicle id="294" depart="1764.00">
        <route edges="n_t t_e"/>
    </vehicle>
    <vehicle id="295" depart="1770.00">
        <route edges="w_t t_e"/>
    </vehicle>
    <vehicle id="296" depart="1776.00">
        <route edges="e_t t_w"/>
    </vehicle>
    <vehicle id="297" depart="1782.00">
        <route edges="n_t t_w"/>
    </vehicle>
    <vehicle id="298" depart="1788.00">
        <route edges="s_t t_n"/>
    </vehicle>
    <vehicle id="299" depart="1794.00">
        <route edges="e_t t_w"/>
    </vehicle>
    <vehicle id="300" depart="1800.00">
        <route edges="e_t t_s"/>
    </vehicle>
    <vehicle id="301" depart="1806.00">
        <route edges="n_t t_w"/>
    </vehicle>
    <vehicle id="302" depart="1812.00">
        <route edges="s_t t_e e_t t_s"/>
    </vehicle>
    <vehicle id="303" depart="1818.00">
        <route edges="n_t t_w"/>
    </vehicle>
    <vehicle id="304" depart="1824.00">
        <route edges="e_t t_s s_t t_e"/>
    </vehicle>
    <vehicle id="305" depart="1830.00">
        <route edges="s_t t_n"/>
    </vehicle>
    <vehicle id="306" depart="1836.00">
        <route edges="s_t t_n"/>
    </vehicle>
    <vehicle id="307" depart="1842.00">
        <route edges="s_t t_n"/>
    </vehicle>
    <vehicle id="308" depart="1848.00">
        <route edges="s_t t_n"/>
    </vehicle>
    <vehicle id="309" depart="1854.00">
        <route edges="s_t t_n"/>
    </vehicle>
    <vehicle id="310" depart="1860.00">
        <route edges="n_t t_e"/>
    </vehicle>
    <vehicle id="311" depart="1866.00">
        <route edges="e_t t_s s_t t_e"/>
    </vehicle>
    <vehicle id="312" depart="1872.00">
        <route edges="s_t t_w"/>
    </vehicle>
    <vehicle id="313" depart="1878.00">
        <route edges="e_t t_s s_t t_e"/>
    </vehicle>
    <vehicle id="314" depart="1884.00">
        <route edges="n_t t_s"/>
    </vehicle>
    <vehicle id="315" depart="1890.00">
        <route edges="w_t t_s"/>
    </vehicle>
    <vehicle id="316" depart="1896.00">
        <route edges="n_t t_e"/>
    </vehicle>
    <vehicle id="317" depart="1902.00">
        <route edges="e_t t_s s_t t_e"/>
    </vehicle>
    <vehicle id="318" depart="1908.00">
        <route edges="e_t t_s s_t t_e"/>
    </vehicle>
    <vehicle id="319" depart="1914.00">
        <route edges="s_t t_n"/>
    </vehicle>
    <vehicle id="320" depart="1920.00">
        <route edges="w_t t_s"/>
    </vehicle>
    <vehicle id="321" depart="1926.00">
        <route edges="s_t t_e"/>
    </vehicle>
    <vehicle id="322" depart="1932.00">