<?xml version="1.0" encoding="UTF-8"?>

<!-- generated on 2023-03-21 16:21:45.158459 by randomTrips.py v1_15_0+0002-e6790248698
<configuration>
    <end value="100000"/>
    <fringe-factor value="20"/>
    <net-file value="nets/3x3grid/3x3.net.xml"/>
    <period value="8.0"/>
    <route-file value="random100.rou.xml"/>
    <trip-attributes value="departLane=&quot;best&quot; departSpeed=&quot;max&quot;"/>
</configuration>
-->

<routes xmlns:xsi="http://www.w3.org/2001/XMLSchema-instance" xsi:noNamespaceSchemaLocation="http://sumo.dlr.de/xsd/routes_file.xsd">
    <trip id="0" depart="0.00" from="-v13" to="-h33" departLane="best" departSpeed="max"/>
    <trip id="1" depart="8.00" from="-h21" to="h11" departLane="best" departSpeed="max"/>
    <trip id="2" depart="16.00" from="-v31" to="h34" departLane="best" departSpeed="max"/>
    <trip id="3" depart="24.00" from="h22" to="-v14" departLane="best" departSpeed="max"/>
    <trip id="4" depart="32.00" from="-h31" to="-v12" departLane="best" departSpeed="max"/>
    <trip id="5" depart="40.00" from="-h14" to="h24" departLane="best" departSpeed="max"/>
    <trip id="6" depart="48.00" from="-E9" to="E9" departLane="best" departSpeed="max"/>
    <trip id="7" depart="56.00" from="-v21" to="h31" departLane="best" departSpeed="max"/>
    <trip id="8" depart="64.00" from="-h14" to="h31" departLane="best" departSpeed="max"/>
    <trip id="9" depart="72.00" from="-v34" to="-h12" departLane="best" departSpeed="max"/>
    <trip id="10" depart="80.00" from="-v34" to="v11" departLane="best" departSpeed="max"/>
    <trip id="11" depart="88.00" from="-h24" to="E9" departLane="best" departSpeed="max"/>
    <trip id="12" depart="96.00" from="v14" to="h14" departLane="best" departSpeed="max"/>
    <trip id="13" depart="104.00" from="-h11" to="-v14" departLane="best" departSpeed="max"/>
    <trip id="14" depart="112.00" from="-v34" to="h34" departLane="best" departSpeed="max"/>
    <trip id="15" depart="120.00" from="-v34" to="v11" departLane="best" departSpeed="max"/>
    <trip id="16" depart="128.00" from="-h34" to="v34" departLane="best" departSpeed="max"/>
    <trip id="17" depart="136.00" from="-h24" to="h31" departLane="best" departSpeed="max"/>
    <trip id="18" depart="144.00" from="-v34" to="h34" departLane="best" departSpeed="max"/>
    <trip id="19" depart="152.00" from="-v34" to="h31" departLane="best" departSpeed="max"/>
    <trip id="20" depart="160.00" from="-v21" to="-v14" departLane="best" departSpeed="max"/>
    <trip id="21" depart="168.00" from="-h14" to="h14" departLane="best" departSpeed="max"/>
    <trip id="22" depart="176.00" from="-h11" to="h11" departLane="best" departSpeed="max"/>
    <trip id="23" depart="184.00" from="-h11" to="h12" departLane="best" departSpeed="max"/>
    <trip id="24" depart="192.00" from="-v12" to="h21" departLane="best" departSpeed="max"/>
    <trip id="25" depart="200.00" from="-h24" to="h11" departLane="best" departSpeed="max"/>
    <trip id="26" depart="208.00" from="-h21" to="v34" departLane="best" departSpeed="max"/>
    <trip id="27" depart="216.00" from="-v21" to="h34" departLane="best" departSpeed="max"/>
    <trip id="28" depart="224.00" from="-h14" to="v11" departLane="best" departSpeed="max"/>
    <trip id="29" depart="232.00" from="-h14" to="h21" departLane="best" departSpeed="max"/>
    <trip id="30" depart="240.00" from="v22" to="h34" departLane="best" departSpeed="max"/>
    <trip id="31" depart="248.00" from="-v11" to="v11" departLane="best" departSpeed="max"/>
    <trip id="32" depart="256.00" from="-v34" to="v21" departLane="best" departSpeed="max"/>
    <trip id="33" depart="264.00" from="-h14" to="-v13" departLane="best" departSpeed="max"/>
    <trip id="34" depart="272.00" from="-h22" to="h11" departLane="best" departSpeed="max"/>
    <trip id="35" depart="280.00" from="-h14" to="v34" departLane="best" departSpeed="max"/>
    <trip id="36" depart="288.00" from="-v34" to="h14" departLane="best" departSpeed="max"/>
    <trip id="37" depart="296.00" from="-v21" to="h21" departLane="best" departSpeed="max"/>
    <trip id="38" depart="304.00" from="v14" to="h24" departLane="best" departSpeed="max"/>
    <trip id="39" depart="312.00" from="-h21" to="h11" departLane="best" departSpeed="max"/>
    <trip id="40" depart="320.00" from="-v11" to="h11" departLane="best" departSpeed="max"/>
    <trip id="41" depart="328.00" from="-v11" to="v31" departLane="best" departSpeed="max"/>
    <trip id="42" depart="336.00" from="-h31" to="h11" departLane="best" departSpeed="max"/>
    <trip id="43" depart="344.00" from="v33" to="h24" departLane="best" departSpeed="max"/>
    <trip id="44" depart="352.00" from="-h11" to="-v14" departLane="best" departSpeed="max"/>
    <trip id="45" depart="360.00" from="-h11" to="h34" departLane="best" departSpeed="max"/>
    <trip id="46" depart="368.00" from="-v31" to="h21" departLane="best" departSpeed="max"/>
    <trip id="47" depart="376.00" from="-E9" to="h21" departLane="best" departSpeed="max"/>
    <trip id="48" depart="384.00" from="v23" to="h31" departLane="best" departSpeed="max"/>
    <trip id="49" depart="392.00" from="v14" to="v31" departLane="best" departSpeed="max"/>
    <trip id="50" depart="400.00" from="-E9" to="v11" departLane="best" departSpeed="max"/>
    <trip id="51" depart="408.00" from="-v21" to="h31" departLane="best" departSpeed="max"/>
    <trip id="52" depart="416.00" from="-h21" to="h34" departLane="best" departSpeed="max"/>
    <trip id="53" depart="424.00" from="-h11" to="h21" departLane="best" departSpeed="max"/>
    <trip id="54" depart="432.00" from="-h31" to="v34" departLane="best" departSpeed="max"/>
    <trip id="55" depart="440.00" from="-v34" to="h11" departLane="best" departSpeed="max"/>
    <trip id="56" depart="448.00" from="-h34" to="E9" departLane="best" departSpeed="max"/>
    <trip id="57" depart="456.00" from="v13" to="v31" departLane="best" departSpeed="max"/>
    <trip id="58" depart="464.00" from="-h21" to="h34" departLane="best" departSpeed="max"/>
    <trip id="59" depart="472.00" from="-v11" to="E9" departLane="best" departSpeed="max"/>
    <trip id="60" depart="480.00" from="-v31" to="h31" departLane="best" departSpeed="max"/>
    <trip id="61" depart="488.00" from="-v31" to="h31" departLane="best" departSpeed="max"/>
    <trip id="62" depart="496.00" from="-E3" to="h14" departLane="best" departSpeed="max"/>
    <trip id="63" depart="504.00" from="-E9" to="v34" departLane="best" departSpeed="max"/>
    <trip id="64" depart="512.00" from="-v34" to="v21" departLane="best" departSpeed="max"/>
    <trip id="65" depart="520.00" from="-h21" to="-v14" departLane="best" departSpeed="max"/>
    <trip id="66" depart="528.00" from="-v34" to="v34" departLane="best" departSpeed="max"/>
    <trip id="67" depart="536.00" from="-h11" to="h24" departLane="best" departSpeed="max"/>
    <trip id="68" depart="544.00" from="-E9" to="v13" departLane="best" departSpeed="max"/>
    <trip id="69" depart="552.00" from="-v31" to="E9" departLane="best" departSpeed="max"/>
    <trip id="70" depart="560.00" from="-h32" to="h31" departLane="best" departSpeed="max"/>
    <trip id="71" depart="568.00" from="-h21" to="v31" departLane="best" departSpeed="max"/>
    <trip id="72" depart="576.00" from="-h31" to="h11" departLane="best" departSpeed="max"/>
    <trip id="73" depart="584.00" from="-h34" to="v11" departLane="best" departSpeed="max"/>
    <trip id="74" depart="592.00" from="-h14" to="h14" departLane="best" departSpeed="max"/>
    <trip id="75" depart="600.00" from="v23" to="h34" departLane="best" departSpeed="max"/>
    <trip id="76" depart="608.00" from="-h31" to="h24" departLane="best" departSpeed="max"/>
    <trip id="77" depart="616.00" from="-h11" to="h11" departLane="best" departSpeed="max"/>
    <trip id="78" depart="624.00" from="-h24" to="h31" departLane="best" departSpeed="max"/>
    <trip id="79" depart="632.00" from="-h14" to="h11" departLane="best" departSpeed="max"/>
    <trip id="80" depart="640.00" from="-E9" to="h34" departLane="best" departSpeed="max"/>
    <trip id="81" depart="648.00" from="-h14" to="v31" departLane="best" departSpeed="max"/>
    <trip id="82" depart="656.00" from="-v34" to="-v14" departLane="best" departSpeed="max"/>
    <trip id="83" depart="664.00" from="-h14" to="h34" departLane="best" departSpeed="max"/>
    <trip id="84" depart="672.00" from="-h14" to="E9" departLane="best" departSpeed="max"/>
    <trip id="85" depart="680.00" from="v14" to="h31" departLane="best" departSpeed="max"/>
    <trip id="86" depart="688.00" from="-h31" to="v21" departLane="best" departSpeed="max"/>
    <trip id="87" depart="696.00" from="-v34" to="E9" departLane="best" departSpeed="max"/>
    <trip id="88" depart="704.00" from="-h11" to="h21" departLane="best" departSpeed="max"/>
    <trip id="89" depart="712.00" from="-h31" to="h24" departLane="best" departSpeed="max"/>
    <trip id="90" depart="720.00" from="-v31" to="h34" departLane="best" departSpeed="max"/>
    <trip id="91" depart="728.00" from="v14" to="-v14" departLane="best" departSpeed="max"/>
    <trip id="92" depart="736.00" from="-h31" to="h14" departLane="best" departSpeed="max"/>
    <trip id="93" depart="744.00" from="-v34" to="h11" departLane="best" departSpeed="max"/>
    <trip id="94" depart="752.00" from="-h14" to="h24" departLane="best" departSpeed="max"/>
    <trip id="95" depart="760.00" from="-h31" to="h12" departLane="best" departSpeed="max"/>
    <trip id="96" depart="768.00" from="-h21" to="v33" departLane="best" departSpeed="max"/>
    <trip id="97" depart="776.00" from="-h31" to="v31" departLane="best" departSpeed="max"/>
    <trip id="98" depart="784.00" from="-h34" to="-v14" departLane="best" departSpeed="max"/>
    <trip id="99" depart="792.00" from="v33" to="v21" departLane="best" departSpeed="max"/>
    <trip id="100" depart="800.00" from="v14" to="v34" departLane="best" departSpeed="max"/>
    <trip id="101" depart="808.00" from="-v34" to="E9" departLane="best" departSpeed="max"/>
    <trip id="102" depart="816.00" from="-h34" to="h11" departLane="best" departSpeed="max"/>
    <trip id="103" depart="824.00" from="-h31" to="-v14" departLane="best" departSpeed="max"/>
    <trip id="104" depart="832.00" from="-h24" to="v34" departLane="best" departSpeed="max"/>
    <trip id="105" depart="840.00" from="-h21" to="v21" departLane="best" departSpeed="max"/>
    <trip id="106" depart="848.00" from="-h31" to="h21" departLane="best" departSpeed="max"/>
    <trip id="107" depart="856.00" from="v14" to="v34" departLane="best" departSpeed="max"/>
    <trip id="108" depart="864.00" from="-h34" to="v11" departLane="best" departSpeed="max"/>
    <trip id="109" depart="872.00" from="-h11" to="h14" departLane="best" departSpeed="max"/>
    <trip id="110" depart="880.00" from="v14" to="h31" departLane="best" departSpeed="max"/>
    <trip id="111" depart="888.00" from="-h34" to="v11" departLane="best" departSpeed="max"/>
    <trip id="112" depart="896.00" from="-E9" to="h31" departLane="best" departSpeed="max"/>
    <trip id="113" depart="904.00" from="-h34" to="v31" departLane="best" departSpeed="max"/>
    <trip id="114" depart="912.00" from="-h12" to="v34" departLane="best" departSpeed="max"/>
    <trip id="115" depart="920.00" from="-h11" to="E9" departLane="best" departSpeed="max"/>
    <trip id="116" depart="928.00" from="-v11" to="h34" departLane="best" departSpeed="max"/>
    <trip id="117" depart="936.00" from="-h14" to="-v33" departLane="best" departSpeed="max"/>
    <trip id="118" depart="944.00" from="h22" to="h11" departLane="best" departSpeed="max"/>
    <trip id="119" depart="952.00" from="-v11" to="h34" departLane="best" departSpeed="max"/>
    <trip id="120" depart="960.00" from="-h31" to="h31" departLane="best" departSpeed="max"/>
    <trip id="121" depart="968.00" from="-h34" to="v34" departLane="best" departSpeed="max"/>
    <trip id="122" depart="976.00" from="-h14" to="v11" departLane="best" departSpeed="max"/>
    <trip id="123" depart="984.00" from="-h21" to="h21" departLane="best" departSpeed="max"/>
    <trip id="124" depart="992.00" from="-v21" to="h14" departLane="best" departSpeed="max"/>
    <trip id="125" depart="1000.00" from="-h22" to="v11" departLane="best" departSpeed="max"/>
    <trip id="126" depart="1008.00" from="-E9" to="h24" departLane="best" departSpeed="max"/>
    <trip id="127" depart="1016.00" from="v33" to="v34" departLane="best" departSpeed="max"/>
    <trip id="128" depart="1024.00" from="-E9" to="h11" departLane="best" departSpeed="max"/>
    <trip id="129" depart="1032.00" from="-h21" to="v34" departLane="best" departSpeed="max"/>
    <trip id="130" depart="1040.00" from="E3" to="v31" departLane="best" departSpeed="max"/>
    <trip id="131" depart="1048.00" from="-h24" to="E9" departLane="best" departSpeed="max"/>
    <trip id="132" depart="1056.00" from="-v34" to="v11" departLane="best" departSpeed="max"/>
    <trip id="133" depart="1064.00" from="-v11" to="v34" departLane="best" departSpeed="max"/>
    <trip id="134" depart="1072.00" from="-v21" to="-h13" departLane="best" departSpeed="max"/>
    <trip id="135" depart="1080.00" from="-v34" to="h14" departLane="best" departSpeed="max"/>
    <trip id="136" depart="1088.00" from="-v21" to="v34" departLane="best" departSpeed="max"/>
    <trip id="137" depart="1096.00" from="-h11" to="-v23" departLane="best" departSpeed="max"/>
    <trip id="138" depart="1104.00" from="-h11" to="h31" departLane="best" departSpeed="max"/>
    <trip id="139" depart="1112.00" from="-h21" to="h34" departLane="best" departSpeed="max"/>
    <trip id="140" depart="1120.00" from="-v22" to="h11" departLane="best" departSpeed="max"/>
    <trip id="141" depart="1128.00" from="-v12" to="h11" departLane="best" departSpeed="max"/>
    <trip id="142" depart="1136.00" from="-h34" to="v31" departLane="best" departSpeed="max"/>
    <trip id="143" depart="1144.00" from="-v34" to="-v14" departLane="best" departSpeed="max"/>
    <trip id="144" depart="1152.00" from="-h31" to="h12" departLane="best" departSpeed="max"/>
    <trip id="145" depart="1160.00" from="-E3" to="v21" departLane="best" departSpeed="max"/>
    <trip id="146" depart="1168.00" from="-v13" to="h11" departLane="best" departSpeed="max"/>
    <trip id="147" depart="1176.00" from="-v31" to="h31" departLane="best" departSpeed="max"/>
    <trip id="148" depart="1184.00" from="-h31" to="-h13" departLane="best" departSpeed="max"/>
    <trip id="149" depart="1192.00" from="-E9" to="v31" departLane="best" departSpeed="max"/>
    <trip id="150" depart="1200.00" from="h33" to="h31" departLane="best" departSpeed="max"/>
    <trip id="151" depart="1208.00" from="-v34" to="h31" departLane="best" departSpeed="max"/>
    <trip id="152" depart="1216.00" from="-h11" to="E9" departLane="best" departSpeed="max"/>
    <trip id="153" depart="1224.00" from="-h21" to="v31" departLane="best" departSpeed="max"/>
    <trip id="154" depart="1232.00" from="-v31" to="v31" departLane="best" departSpeed="max"/>
    <trip id="155" depart="1240.00" from="h32" to="h11" departLane="best" departSpeed="max"/>
    <trip id="156" depart="1248.00" from="-h21" to="-v14" departLane="best" departSpeed="max"/>
    <trip id="157" depart="1256.00" from="-v31" to="v31" departLane="best" departSpeed="max"/>
    <trip id="158" depart="1264.00" from="-h31" to="h34" departLane="best" departSpeed="max"/>
    <trip id="159" depart="1272.00" from="-h11" to="v34" departLane="best" departSpeed="max"/>
    <trip id="160" depart="1280.00" from="-v34" to="v34" departLane="best" departSpeed="max"/>
    <trip id="161" depart="1288.00" from="-v34" to="v31" departLane="best" departSpeed="max"/>
    <trip id="162" depart="1296.00" from="-E9" to="v11" departLane="best" departSpeed="max"/>
    <trip id="163" depart="1304.00" from="-h24" to="v34" departLane="best" departSpeed="max"/>
    <trip id="164" depart="1312.00" from="-v33" to="v31" departLane="best" departSpeed="max"/>
    <trip id="165" depart="1320.00" from="-v34" to="h11" departLane="best" departSpeed="max"/>
    <trip id="166" depart="1328.00" from="-v31" to="-v14" departLane="best" departSpeed="max"/>
    <trip id="167" depart="1336.00" from="-v34" to="v31" departLane="best" departSpeed="max"/>
    <trip id="168" depart="1344.00" from="-h14" to="v21" departLane="best" departSpeed="max"/>
    <trip id="169" depart="1352.00" from="-h31" to="h14" departLane="best" departSpeed="max"/>
    <trip id="170" depart="1360.00" from="-v31" to="h11" departLane="best" departSpeed="max"/>
    <trip id="171" depart="1368.00" from="-E9" to="E9" departLane="best" departSpeed="max"/>
    <trip id="172" depart="1376.00" from="-h24" to="v31" departLane="best" departSpeed="max"/>
    <trip id="173" depart="1384.00" from="v14" to="h12" departLane="best" departSpeed="max"/>
    <trip id="174" depart="1392.00" from="-v21" to="h21" departLane="best" departSpeed="max"/>
    <trip id="175" depart="1400.00" from="v14" to="h31" departLane="best" departSpeed="max"/>
    <trip id="176" depart="1408.00" from="v14" to="-v23" departLane="best" departSpeed="max"/>
    <trip id="177" depart="1416.00" from="v14" to="E9" departLane="best" departSpeed="max"/>
    <trip id="178" depart="1424.00" from="v14" to="h11" departLane="best" departSpeed="max"/>
    <trip id="179" depart="1432.00" from="-h11" to="h21" departLane="best" departSpeed="max"/>
    <trip id="180" depart="1440.00" from="-v31" to="h14" departLane="best" departSpeed="max"/>
    <trip id="181" depart="1448.00" from="-v11" to="h24" departLane="best" departSpeed="max"/>
    <trip id="182" depart="1456.00" from="-h24" to="h31" departLane="best" departSpeed="max"/>
    <trip id="183" depart="1464.00" from="-h21" to="v11" departLane="best" departSpeed="max"/>
    <trip id="184" depart="1472.00" from="-E3" to="v34" departLane="best" departSpeed="max"/>
    <trip id="185" depart="1480.00" from="-h34" to="v11" departLane="best" departSpeed="max"/>
    <trip id="186" depart="1488.00" from="-v31" to="h34" departLane="best" departSpeed="max"/>
    <trip id="187" depart="1496.00" from="-h24" to="-v14" departLane="best" departSpeed="max"/>
    <trip id="188" depart="1504.00" from="-v21" to="h14" departLane="best" departSpeed="max"/>
    <trip id="189" depart="1512.00" from="-h21" to="v31" departLane="best" departSpeed="max"/>
    <trip id="190" depart="1520.00" from="-v23" to="h14" departLane="best" departSpeed="max"/>
    <trip id="191" depart="1528.00" from="-h21" to="h21" departLane="best" departSpeed="max"/>
    <trip id="192" depart="1536.00" from="-h31" to="h14" departLane="best" departSpeed="max"/>
    <trip id="193" depart="1544.00" from="-h11" to="h21" departLane="best" departSpeed="max"/>
    <trip id="194" depart="1552.00" from="v14" to="h34" departLane="best" departSpeed="max"/>
    <trip id="195" depart="1560.00" from="h33" to="h34" departLane="best" departSpeed="max"/>
    <trip id="196" depart="1568.00" from="-h21" to="h31" departLane="best" departSpeed="max"/>
    <trip id="197" depart="1576.00" from="-E3" to="h14" departLane="best" departSpeed="max"/>
    <trip id="198" depart="1584.00" from="-h31" to="h31" departLane="best" departSpeed="max"/>
    <trip id="199" depart="1592.00" from="-v21" to="h24" departLane="best" departSpeed="max"/>
    <trip id="200" depart="1600.00" from="-h31" to="h11" departLane="best" departSpeed="max"/>
    <trip id="201" depart="1608.00" from="-h31" to="v31" departLane="best" departSpeed="max"/>
    <trip id="202" depart="1616.00" from="-v31" to="E9" departLane="best" departSpeed="max"/>
    <trip id="203" depart="1624.00" from="-h11" to="h24" departLane="best" departSpeed="max"/>
    <trip id="204" depart="1632.00" from="-v12" to="h14" departLane="best" departSpeed="max"/>
    <trip id="205" depart="1640.00" from="-v34" to="v11" departLane="best" departSpeed="max"/>
    <trip id="206" depart="1648.00" from="-v21" to="h11" departLane="best" departSpeed="max"/>
    <trip id="207" depart="1656.00" from="-h14" to="-h33" departLane="best" departSpeed="max"/>
    <trip id="208" depart="1664.00" from="-h21" to="h24" departLane="best" departSpeed="max"/>
    <trip id="209" depart="1672.00" from="-v34" to="-v14" departLane="best" departSpeed="max"/>
    <trip id="210" depart="1680.00" from="-h31" to="h34" departLane="best" departSpeed="max"/>
    <trip id="211" depart="1688.00" from="-h14" to="v11" departLane="best" departSpeed="max"/>
    <trip id="212" depart="1696.00" from="-h34" to="h11" departLane="best" departSpeed="max"/>
    <trip id="213" depart="1704.00" from="-v21" to="-h12" departLane="best" departSpeed="max"/>
    <trip id="214" depart="1712.00" from="-v31" to="v21" departLane="best" departSpeed="max"/>
    <trip id="215" depart="1720.00" from="-h11" to="h21" departLane="best" departSpeed="max"/>
    <trip id="216" depart="1728.00" from="-h14" to="v34" departLane="best" departSpeed="max"/>
    <trip id="217" depart="1736.00" from="-h34" to="-v14" departLane="best" departSpeed="max"/>
    <trip id="218" depart="1744.00" from="-h21" to="v31" departLane="best" departSpeed="max"/>
    <trip id="219" depart="1752.00" from="-h31" to="v21" departLane="best" departSpeed="max"/>
    <trip id="220" depart="1760.00" from="-v21" to="v34" departLane="best" departSpeed="max"/>
    <trip id="221" depart="1768.00" from="-v11" to="v34" departLane="best" departSpeed="max"/>
    <trip id="222" depart="1776.00" from="h22" to="h34" departLane="best" departSpeed="max"/>
    <trip id="223" depart="1784.00" from="-v22" to="h24" departLane="best" departSpeed="max"/>
    <trip id="224" depart="1792.00" from="-v34" to="h31" departLane="best" departSpeed="max"/>
    <trip id="225" depart="1800.00" from="h23" to="v11" departLane="best" departSpeed="max"/>
    <trip id="226" depart="1808.00" from="-h32" to="h11" departLane="best" departSpeed="max"/>
    <trip id="227" depart="1816.00" from="-h21" to="h34" departLane="best" departSpeed="max"/>
    <trip id="228" depart="1824.00" from="-v31" to="h31" departLane="best" departSpeed="max"/>
    <trip id="229" depart="1832.00" from="-v11" to="h11" departLane="best" departSpeed="max"/>
    <trip id="230" depart="1840.00" from="-E9" to="h14" departLane="best" departSpeed="max"/>
    <trip id="231" depart="1848.00" from="-h21" to="h14" departLane="best" departSpeed="max"/>
    <trip id="232" depart="1856.00" from="-h34" to="E9" departLane="best" departSpeed="max"/>
    <trip id="233" depart="1864.00" from="-h14" to="v11" departLane="best" departSpeed="max"/>
    <trip id="234" depart="1872.00" from="-v21" to="-v14" departLane="best" departSpeed="max"/>
    <trip id="235" depart="1880.00" from="-h31" to="h31" departLane="best" departSpeed="max"/>
    <trip id="236" depart="1888.00" from="-h31" to="h11" departLane="best" departSpeed="max"/>
    <trip id="237" depart="1896.00" from="-h31" to="v31" departLane="best" departSpeed="max"/>
    <trip id="238" depart="1904.00" from="-v11" to="v11" departLane="best" departSpeed="max"/>
    <trip id="239" depart="1912.00" from="-v34" to="v21" departLane="best" departSpeed="max"/>
    <trip id="240" depart="1920.00" from="-h24" to="-h12" departLane="best" departSpeed="max"/>
    <trip id="241" depart="1928.00" from="-h24" to="v11" departLane="best" departSpeed="max"/>
    <trip id="242" depart="1936.00" from="-v34" to="v34" departLane="best" departSpeed="max"/>
    <trip id="243" depart="1944.00" from="-h31" to="v11" departLane="best" departSpeed="max"/>
    <trip id="244" depart="1952.00" from="-h34" to="h34" departLane="best" departSpeed="max"/>
    <trip id="245" depart="1960.00" from="-h14" to="h11" departLane="best" departSpeed="max"/>
    <trip id="246" depart="1968.00" from="-h31" to="-v12" departLane="best" departSpeed="max"/>
    <trip id="247" depart="1976.00" from="-h24" to="v11" departLane="best" departSpeed="max"/>
    <trip id="248" depart="1984.00" from="-h31" to="E9" departLane="best" departSpeed="max"/>
    <trip id="249" depart="1992.00" from="-h31" to="E9" departLane="best" departSpeed="max"/>
    <trip id="250" depart="2000.00" from="-v11" to="-v12" departLane="best" departSpeed="max"/>
    <trip id="251" depart="2008.00" from="-h24" to="h31" departLane="best" departSpeed="max"/>
    <trip id="252" depart="2016.00" from="-E9" to="h34" departLane="best" departSpeed="max"/>
    <trip id="253" depart="2024.00" from="-h11" to="h24" departLane="best" departSpeed="max"/>
    <trip id="254" depart="2032.00" from="-E9" to="h21" departLane="best" departSpeed="max"/>
    <trip id="255" depart="2040.00" from="-h14" to="h14" departLane="best" departSpeed="max"/>
    <trip id="256" depart="2048.00" from="-v31" to="h21" departLane="best" departSpeed="max"/>
    <trip id="257" depart="2056.00" from="-v31" to="v21" departLane="best" departSpeed="max"/>
    <trip id="258" depart="2064.00" from="-h21" to="-v14" departLane="best" departSpeed="max"/>
    <trip id="259" depart="2072.00" from="-E9" to="h31" departLane="best" departSpeed="max"/>
    <trip id="260" depart="2080.00" from="v33" to="h14" departLane="best" departSpeed="max"/>
    <trip id="261" depart="2088.00" from="-v21" to="v21" departLane="best" departSpeed="max"/>
    <trip id="262" depart="2096.00" from="-v21" to="v12" departLane="best" departSpeed="max"/>
    <trip id="263" depart="2104.00" from="v14" to="E9" departLane="best" departSpeed="max"/>
    <trip id="264" depart="2112.00" from="-E9" to="E9" departLane="best" departSpeed="max"/>
    <trip id="265" depart="2120.00" from="-h11" to="h34" departLane="best" departSpeed="max"/>
    <trip id="266" depart="2128.00" from="-v11" to="h11" departLane="best" departSpeed="max"/>
    <trip id="267" depart="2136.00" from="-v21" to="v21" departLane="best" departSpeed="max"/>
    <trip id="268" depart="2144.00" from="-h14" to="h34" departLane="best" departSpeed="max"/>
    <trip id="269" depart="2152.00" from="-v31" to="-v23" departLane="best" departSpeed="max"/>
    <trip id="270" depart="2160.00" from="-v34" to="v34" departLane="best" departSpeed="max"/>
    <trip id="271" depart="2168.00" from="-h11" to="-h33" departLane="best" departSpeed="max"/>
    <trip id="272" depart="2176.00" from="-h21" to="h34" departLane="best" departSpeed="max"/>
    <trip id="273" depart="2184.00" from="v14" to="h21" departLane="best" departSpeed="max"/>
    <trip id="274" depart="2192.00" from="-v21" to="-v14" departLane="best" departSpeed="max"/>
    <trip id="275" depart="2200.00" from="-v21" to="h34" departLane="best" departSpeed="max"/>
    <trip id="276" depart="2208.00" from="-h11" to="v21" departLane="best" departSpeed="max"/>
    <trip id="277" depart="2216.00" from="-v34" to="h33" departLane="best" departSpeed="max"/>
    <trip id="278" depart="2224.00" from="-h11" to="v34" departLane="best" departSpeed="max"/>
    <trip id="279" depart="2232.00" from="-v31" to="h14" departLane="best" departSpeed="max"/>
    <trip id="280" depart="2240.00" from="-h31" to="h21" departLane="best" departSpeed="max"/>
    <trip id="281" depart="2248.00" from="-h34" to="h14" departLane="best" departSpeed="max"/>
    <trip id="282" depart="2256.00" from="-v34" to="v21" departLane="best" departSpeed="max"/>
    <trip id="283" depart="2264.00" from="-h11" to="v34" departLane="best" departSpeed="max"/>
    <trip id="284" depart="2272.00" from="-v12" to="v21" departLane="best" departSpeed="max"/>
    <trip id="285" depart="2280.00" from="-v21" to="h21" departLane="best" departSpeed="max"/>
    <trip id="286" depart="2288.00" from="-v31" to="v34" departLane="best" departSpeed="max"/>
    <trip id="287" depart="2296.00" from="-h21" to="v21" departLane="best" departSpeed="max"/>
    <trip id="288" depart="2304.00" from="-h34" to="h24" departLane="best" departSpeed="max"/>
    <trip id="289" depart="2312.00" from="-h31" to="v11" departLane="best" departSpeed="max"/>
    <trip id="290" depart="2320.00" from="-h21" to="v31" departLane="best" departSpeed="max"/>
    <trip id="291" depart="2328.00" from="-v34" to="-v14" departLane="best" departSpeed="max"/>
    <trip id="292" depart="2336.00" from="E3" to="h11" departLane="best" departSpeed="max"/>
    <trip id="293" depart="2344.00" from="-h31" to="h34" departLane="best" departSpeed="max"/>
    <trip id="294" depart="2352.00" from="-h24" to="-v12" departLane="best" departSpeed="max"/>
    <trip id="295" depart="2360.00" from="-v34" to="E9" departLane="best" departSpeed="max"/>
    <trip id="296" depart="2368.00" from="-h14" to="v21" departLane="best" departSpeed="max"/>
    <trip id="297" depart="2376.00" from="-h24" to="v31" departLane="best" departSpeed="max"/>
    <trip id="298" depart="2384.00" from="-v21" to="h11" departLane="best" departSpeed="max"/>
    <trip id="299" depart="2392.00" from="-E9" to="v34" departLane="best" departSpeed="max"/>
    <trip id="300" depart="2400.00" from="-h11" to="v11" departLane="best" departSpeed="max"/>
    <trip id="301" depart="2408.00" from="-h34" to="v13" departLane="best" departSpeed="max"/>
    <trip id="302" depart="2416.00" from="-v21" to="h34" departLane="best" departSpeed="max"/>
    <trip id="303" depart="2424.00" from="-h34" to="v21" departLane="best" departSpeed="max"/>
    <trip id="304" depart="2432.00" from="-h11" to="h11" departLane="best" departSpeed="max"/>
    <trip id="305" depart="2440.00" from="-v21" to="h14" departLane="best" departSpeed="max"/>
    <trip id="306" depart="2448.00" from="-v11" to="h24" departLane="best" departSpeed="max"/>
    <trip id="307" depart="2456.00" from="-h34" to="h21" departLane="best" departSpeed="max"/>
    <trip id="308" depart="2464.00" from="-v31" to="h14" departLane="best" departSpeed="max"/>
    <trip id="309" depart="2472.00" from="-v21" to="h11" departLane="best" departSpeed="max"/>
    <trip id="310" depart="2480.00" from="-h21" to="-v33" departLane="best" departSpeed="max"/>
    <trip id="311" depart="2488.00" from="-h14" to="-v33" departLane="best" departSpeed="max"/>