<?xml version="1.0" encoding="UTF-8"?>

<!-- generated on 2023-02-05 20:27:39 by Eclipse SUMO netedit Version 1.15.0
<configuration xmlns:xsi="http://www.w3.org/2001/XMLSchema-instance" xsi:noNamespaceSchemaLocation="http://sumo.dlr.de/xsd/netconvertConfiguration.xsd">

    <input>
        <sumo-net-file value="D:\programmi\sumo\esperimenti semafori\Reinforcement-learning-in-traffic-light\nets\3x3grid\3x3.net.xml"/>
    </input>

    <output>
        <output-file value="D:\programmi\sumo\esperimenti semafori\Reinforcement-learning-in-traffic-light\nets\3x3grid\3x3.net.xml"/>
    </output>

    <processing>
        <geometry.min-radius.fix.railways value="false"/>
        <geometry.max-grade.fix value="false"/>
        <offset.disable-normalization value="true"/>
        <lefthand value="0"/>
    </processing>

    <junctions>
        <no-turnarounds value="true"/>
        <junctions.corner-detail value="0"/>
        <junctions.limit-turn-speed value="-1.00"/>
        <rectangular-lane-cut value="0"/>
    </junctions>

    <pedestrian>
        <walkingareas value="0"/>
    </pedestrian>

</configuration>
-->

<net version="1.9" xmlns:xsi="http://www.w3.org/2001/XMLSchema-instance" xsi:noNamespaceSchemaLocation="http://sumo.dlr.de/xsd/net_file.xsd">

    <location netOffset="-1850.00,-2900.00" convBoundary="146.23,130.64,746.93,750.00" origBoundary="1850.00,2900.00,2600.00,3650.00" projParameter="!"/>

    <edge id=":1_0" function="internal">
        <lane id=":1_0_0" index="0" speed="13.89" length="9.03" shape="295.20,610.40 294.85,607.95 293.80,606.20 292.05,605.15 289.60,604.80"/>
    </edge>
    <edge id=":1_1" function="internal">
        <lane id=":1_1_0" index="0" speed="13.89" length="20.80" shape="295.20,610.40 295.20,589.60"/>
    </edge>
    <edge id=":1_2" function="internal">
        <lane id=":1_2_0" index="0" speed="13.89" length="19.35" shape="298.40,610.40 299.15,605.15 301.40,601.40 305.15,599.15 310.40,598.40"/>
    </edge>
    <edge id=":1_3" function="internal">
        <lane id=":1_3_0" index="0" speed="13.89" length="9.03" shape="310.40,604.80 307.95,605.15 306.20,606.20 305.15,607.95 304.80,610.40"/>
    </edge>
    <edge id=":1_4" function="internal">
        <lane id=":1_4_0" index="0" speed="13.89" length="20.80" shape="310.40,604.80 289.60,604.80"/>
    </edge>
    <edge id=":1_5" function="internal">
        <lane id=":1_5_0" index="0" speed="13.89" length="19.35" shape="310.40,601.60 305.15,600.85 301.40,598.60 299.15,594.85 298.40,589.60"/>
    </edge>
    <edge id=":1_6" function="internal">
        <lane id=":1_6_0" index="0" speed="13.89" length="9.03" shape="304.80,589.60 305.15,592.05 306.20,593.80 307.95,594.85 310.40,595.20"/>
    </edge>
    <edge id=":1_7" function="internal">
        <lane id=":1_7_0" index="0" speed="13.89" length="20.80" shape="304.80,589.60 304.80,610.40"/>
    </edge>
    <edge id=":1_8" function="internal">
        <lane id=":1_8_0" index="0" speed="13.89" length="19.35" shape="301.60,589.60 300.85,594.85 298.60,598.60 294.85,600.85 289.60,601.60"/>
    </edge>
    <edge id=":1_9" function="internal">
        <lane id=":1_9_0" index="0" speed="13.89" length="9.03" shape="289.60,595.20 292.05,594.85 293.80,593.80 294.85,592.05 295.20,589.60"/>
    </edge>
    <edge id=":1_10" function="internal">
        <lane id=":1_10_0" index="0" speed="13.89" length="20.80" shape="289.60,595.20 310.40,595.20"/>
    </edge>
    <edge id=":1_11" function="internal">
        <lane id=":1_11_0" index="0" speed="13.89" length="19.35" shape="289.60,598.40 294.85,599.15 298.60,601.40 300.85,605.15 301.60,610.40"/>
    </edge>
    <edge id=":10_0" function="internal">
        <lane id=":10_0_0" index="0" speed="13.89" length="9.05" shape="445.20,310.42 444.85,307.96 443.80,306.20 442.05,305.15 439.60,304.80"/>
    </edge>
    <edge id=":10_1" function="internal">
        <lane id=":10_1_0" index="0" speed="13.89" length="20.85" shape="445.20,310.42 445.25,289.56"/>
    </edge>
    <edge id=":10_2" function="internal">
        <lane id=":10_2_0" index="0" speed="13.89" length="19.37" shape="448.40,310.42 449.15,305.16 451.41,301.41 455.16,299.17 460.42,298.43"/>
    </edge>
    <edge id=":10_3" function="internal">
        <lane id=":10_3_0" index="0" speed="13.89" length="9.03" shape="460.40,304.83 457.95,305.17 456.20,306.22 455.15,307.97 454.80,310.42"/>
    </edge>
    <edge id=":10_4" function="internal">
        <lane id=":10_4_0" index="0" speed="13.89" length="20.80" shape="460.40,304.83 439.60,304.80"/>
    </edge>
    <edge id=":10_5" function="internal">
        <lane id=":10_5_0" index="0" speed="13.89" length="19.37" shape="460.41,301.63 455.16,300.86 451.41,298.60 449.18,294.84 448.45,289.58"/>
    </edge>
    <edge id=":10_6" function="internal">
        <lane id=":10_6_0" index="0" speed="13.89" length="9.04" shape="454.85,289.61 455.19,292.06 456.23,293.82 457.98,294.87 460.43,295.23"/>
    </edge>
    <edge id=":10_7" function="internal">
        <lane id=":10_7_0" index="0" speed="13.89" length="20.81" shape="454.85,289.61 454.80,310.42"/>
    </edge>
    <edge id=":10_8" function="internal">
        <lane id=":10_8_0" index="0" speed="13.89" length="19.38" shape="451.65,289.60 450.88,294.85 448.61,298.60 444.85,300.85 439.60,301.60"/>
    </edge>
    <edge id=":10_9" function="internal">
        <lane id=":10_9_0" index="0" speed="13.89" length="9.09" shape="439.60,295.20 442.06,294.85 443.82,293.79 444.89,292.03 445.25,289.56"/>
    </edge>
    <edge id=":10_10" function="internal">
        <lane id=":10_10_0" index="0" speed="13.89" length="20.83" shape="439.60,295.20 460.43,295.23"/>
    </edge>
    <edge id=":10_11" function="internal">
        <lane id=":10_11_0" index="0" speed="13.89" length="19.37" shape="439.60,298.40 444.85,299.15 448.60,301.40 450.85,305.16 451.60,310.42"/>
    </edge>
    <edge id=":2_0" function="internal">
        <lane id=":2_0_0" index="0" speed="13.89" length="9.03" shape="445.20,610.40 444.85,607.95 443.80,606.20 442.05,605.15 439.60,604.80"/>
    </edge>
    <edge id=":2_1" function="internal">
        <lane id=":2_1_0" index="0" speed="13.89" length="20.80" shape="445.20,610.40 445.20,589.60"/>
    </edge>
    <edge id=":2_2" function="internal">
        <lane id=":2_2_0" index="0" speed="13.89" length="19.35" shape="448.40,610.40 449.15,605.15 451.40,601.40 455.15,599.15 460.40,598.40"/>
    </edge>
    <edge id=":2_3" function="internal">
        <lane id=":2_3_0" index="0" speed="13.89" length="9.03" shape="460.40,604.80 457.95,605.15 456.20,606.20 455.15,607.95 454.80,610.40"/>
    </edge>
    <edge id=":2_4" function="internal">
        <lane id=":2_4_0" index="0" speed="13.89" length="20.80" shape="460.40,604.80 439.60,604.80"/>
    </edge>
    <edge id=":2_5" function="internal">
        <lane id=":2_5_0" index="0" speed="13.89" length="19.35" shape="460.40,601.60 455.15,600.85 451.40,598.60 449.15,594.85 448.40,589.60"/>
    </edge>
    <edge id=":2_6" function="internal">
        <lane id=":2_6_0" index="0" speed="13.89" length="9.03" shape="454.80,589.60 455.15,592.05 456.20,593.80 457.95,594.85 460.40,595.20"/>
    </edge>
    <edge id=":2_7" function="internal">
        <lane id=":2_7_0" index="0" speed="13.89" length="20.80" shape="454.80,589.60 454.80,610.40"/>
    </edge>
    <edge id=":2_8" function="internal">
        <lane id=":2_8_0" index="0" speed="13.89" length="19.35" shape="451.60,589.60 450.85,594.85 448.60,598.60 444.85,600.85 439.60,601.60"/>
    </edge>
    <edge id=":2_9" function="internal">
        <lane id=":2_9_0" index="0" speed="13.89" length="9.03" shape="439.60,595.20 442.05,594.85 443.80,593.80 444.85,592.05 445.20,589.60"/>
    </edge>
    <edge id=":2_10" function="internal">
        <lane id=":2_10_0" index="0" speed="13.89" length="20.80" shape="439.60,595.20 460.40,595.20"/>
    </edge>
    <edge id=":2_11" function="internal">
        <lane id=":2_11_0" index="0" speed="13.89" length="19.35" shape="439.60,598.40 444.85,599.15 448.60,601.40 450.85,605.15 451.60,610.40"/>
    </edge>
    <edge id=":3_0" function="internal">
        <lane id=":3_0_0" index="0" speed="13.89" length="9.06" shape="610.39,604.81 607.93,605.16 606.18,606.21 605.12,607.97 604.77,610.44"/>
    </edge>
    <edge id=":3_1" function="internal">
        <lane id=":3_1_0" index="0" speed="13.89" length="20.81" shape="610.39,604.81 589.58,604.80"/>
    </edge>
    <edge id=":3_2" function="internal">
        <lane id=":3_2_0" index="0" speed="13.89" length="19.35" shape="610.39,601.61 605.14,600.86 601.40,598.60 599.15,594.85 598.40,589.60"/>
    </edge>
    <edge id=":3_3" function="internal">
        <lane id=":3_3_0" index="0" speed="13.89" length="9.04" shape="604.80,589.60 605.15,592.05 606.20,593.81 607.95,594.86 610.40,595.21"/>
    </edge>
    <edge id=":3_4" function="internal">
        <lane id=":3_4_0" index="0" speed="13.89" length="20.84" shape="604.80,589.60 604.77,610.44"/>
    </edge>
    <edge id=":3_5" function="internal">
        <lane id=":3_5_0" index="0" speed="13.89" length="19.37" shape="601.60,589.60 600.85,594.85 598.59,598.60 594.84,600.85 589.58,601.60"/>
    </edge>
    <edge id=":3_6" function="internal">
        <lane id=":3_6_0" index="0" speed="13.89" length="9.05" shape="589.58,595.20 592.04,594.85 593.79,593.80 594.85,592.05 595.20,589.60"/>
    </edge>
    <edge id=":3_7" function="internal">
        <lane id=":3_7_0" index="0" speed="13.89" length="20.82" shape="589.58,595.20 610.40,595.21"/>
    </edge>
    <edge id=":3_8" function="internal">
        <lane id=":3_8_0" index="0" speed="13.89" length="19.38" shape="589.58,598.40 594.84,599.15 598.59,601.41 600.83,605.16 601.57,610.43"/>
    </edge>
    <edge id=":3_9" function="internal">
        <lane id=":3_9_0" index="0" speed="13.89" length="9.03" shape="595.17,610.41 594.82,607.95 593.78,606.20 592.03,605.15 589.58,604.80"/>
    </edge>
    <edge id=":3_10" function="internal">
        <lane id=":3_10_0" index="0" speed="13.89" length="20.81" shape="595.17,610.41 595.20,589.60"/>
    </edge>
    <edge id=":3_11" function="internal">
        <lane id=":3_11_0" index="0" speed="13.89" length="19.37" shape="598.37,610.42 599.13,605.16 601.39,601.41 605.15,599.16 610.39,598.41"/>
    </edge>
    <edge id=":5_0" function="internal">
        <lane id=":5_0_0" index="0" speed="13.89" length="9.03" shape="295.20,460.40 294.85,457.95 293.80,456.20 292.05,455.15 289.60,454.80"/>
    </edge>
    <edge id=":5_1" function="internal">
        <lane id=":5_1_0" index="0" speed="13.89" length="20.80" shape="295.20,460.40 295.20,439.60"/>
    </edge>
    <edge id=":5_2" function="internal">
        <lane id=":5_2_0" index="0" speed="13.89" length="19.35" shape="298.40,460.40 299.15,455.15 301.40,451.40 305.15,449.15 310.40,448.40"/>
    </edge>
    <edge id=":5_3" function="internal">
        <lane id=":5_3_0" index="0" speed="13.89" length="9.03" shape="310.40,454.80 307.95,455.15 306.20,456.20 305.15,457.95 304.80,460.40"/>
    </edge>
    <edge id=":5_4" function="internal">
        <lane id=":5_4_0" index="0" speed="13.89" length="20.80" shape="310.40,454.80 289.60,454.80"/>
    </edge>
    <edge id=":5_5" function="internal">
        <lane id=":5_5_0" index="0" speed="13.89" length="19.35" shape="310.40,451.60 305.15,450.85 301.40,448.60 299.15,444.85 298.40,439.60"/>
    </edge>
    <edge id=":5_6" function="internal">
        <lane id=":5_6_0" index="0" speed="13.89" length="9.03" shape="304.80,439.60 305.15,442.05 306.20,443.80 307.95,444.85 310.40,445.20"/>
    </edge>
    <edge id=":5_7" function="internal">
        <lane id=":5_7_0" index="0" speed="13.89" length="20.80" shape="304.80,439.60 304.80,460.40"/>
    </edge>
    <edge id=":5_8" function="internal">
        <lane id=":5_8_0" index="0" speed="13.89" length="19.35" shape="301.60,439.60 300.85,444.85 298.60,448.60 294.85,450.85 289.60,451.60"/>
    </edge>
    <edge id=":5_9" function="internal">
        <lane id=":5_9_0" index="0" speed="13.89" length="9.03" shape="289.60,445.20 292.05,444.85 293.80,443.80 294.85,442.05 295.20,439.60"/>
    </edge>
    <edge id=":5_10" function="internal">
        <lane id=":5_10_0" index="0" speed="13.89" length="20.80" shape="289.60,445.20 310.40,445.20"/>
    </edge>
    <edge id=":5_11" function="internal">
        <lane id=":5_11_0" index="0" speed="13.89" length="19.35" shape="289.60,448.40 294.85,449.15 298.60,451.40 300.85,455.15 301.60,460.40"/>
    </edge>
    <edge id=":6_0" function="internal">
        <lane id=":6_0_0" index="0" speed="13.89" length="9.03" shape="445.20,460.40 444.85,457.95 443.80,456.20 442.05,455.15 439.60,454.80"/>
    </edge>
    <edge id=":6_1" function="internal">
        <lane id=":6_1_0" index="0" speed="13.89" length="20.80" shape="445.20,460.40 445.20,439.60"/>
    </edge>
    <edge id=":6_2" function="internal">
        <lane id=":6_2_0" index="0" speed="13.89" length="19.35" shape="448.40,460.40 449.15,455.15 451.40,451.40 455.15,449.15 460.40,448.40"/>
    </edge>
    <edge id=":6_3" function="internal">
        <lane id=":6_3_0" index="0" speed="13.89" length="9.03" shape="460.40,454.80 457.95,455.15 456.20,456.20 455.15,457.95 454.80,460.40"/>
    </edge>
    <edge id=":6_4" function="internal">
        <lane id=":6_4_0" index="0" speed="13.89" length="20.80" shape="460.40,454.80 439.60,454.80"/>
    </edge>
    <edge id=":6_5" function="internal">
        <lane id=":6_5_0" index="0" speed="13.89" length="19.35" shape="460.40,451.60 455.15,450.85 451.40,448.60 449.15,444.85 448.40,439.60"/>
    </edge>
    <edge id=":6_6" function="internal">
        <lane id=":6_6_0" index="0" speed="13.89" length="9.03" shape="454.80,439.60 455.15,442.05 456.20,443.80 457.95,444.85 460.40,445.20"/>
    </edge>
    <edge id=":6_7" function="internal">
        <lane id=":6_7_0" index="0" speed="13.89" length="20.80" shape="454.80,439.60 454.80,460.40"/>
    </edge>
    <edge id=":6_8" function="internal">
        <lane id=":6_8_0" index="0" speed="13.89" length="19.35" shape="451.60,439.60 450.85,444.85 448.60,448.60 444.85,450.85 439.60,451.60"/>
    </edge>
    <edge id=":6_9" function="internal">
        <lane id=":6_9_0" index="0" speed="13.89" length="9.03" shape="439.60,445.20 442.05,444.85 443.80,443.80 444.85,442.05 445.20,439.60"/>
    </edge>
    <edge id=":6_10" function="internal">
        <lane id=":6_10_0" index="0" speed="13.89" length="20.80" shape="439.60,445.20 460.40,445.20"/>
    </edge>
    <edge id=":6_11" function="internal">
        <lane id=":6_11_0" index="0" speed="13.89" length="19.35" shape="439.60,448.40 444.85,449.15 448.60,451.40 450.85,455.15 451.60,460.40"/>
    </edge>
    <edge id=":7_0" function="internal">
        <lane id=":7_0_0" index="0" speed="13.89" length="9.07" shape="595.20,460.44 594.85,457.97 593.80,456.21 592.05,455.15 589.60,454.80"/>
    </edge>
    <edge id=":7_1" function="internal">
        <lane id=":7_1_0" index="0" speed="13.89" length="20.84" shape="595.20,460.44 595.21,439.60"/>
    </edge>
    <edge id=":7_2" function="internal">
        <lane id=":7_2_0" index="0" speed="13.89" length="19.40" shape="598.40,460.44 599.15,455.17 601.41,451.42 605.18,449.19 610.45,448.47"/>
    </edge>
    <edge id=":7_3" function="internal">
        <lane id=":7_3_0" index="0" speed="13.89" length="9.03" shape="610.41,454.87 607.96,455.20 606.20,456.24 605.15,457.99 604.80,460.44"/>
    </edge>
    <edge id=":7_4" function="internal">
        <lane id=":7_4_0" index="0" speed="13.89" length="20.81" shape="610.41,454.87 589.60,454.80"/>
    </edge>
    <edge id=":7_5" function="internal">
        <lane id=":7_5_0" index="0" speed="13.89" length="19.40" shape="610.43,451.67 605.17,450.88 601.41,448.61 599.16,444.85 598.41,439.60"/>
    </edge>
    <edge id=":7_6" function="internal">
        <lane id=":7_6_0" index="0" speed="13.89" length="9.12" shape="604.81,439.61 605.16,442.07 606.22,443.83 607.99,444.90 610.47,445.27"/>
    </edge>
    <edge id=":7_7" function="internal">
        <lane id=":7_7_0" index="0" speed="13.89" length="20.84" shape="604.81,439.61 604.80,460.44"/>
    </edge>
    <edge id=":7_8" function="internal">
        <lane id=":7_8_0" index="0" speed="13.89" length="19.35" shape="601.61,439.60 600.85,444.85 598.60,448.60 594.85,450.85 589.60,451.60"/>
    </edge>
    <edge id=":7_9" function="internal">
        <lane id=":7_9_0" index="0" speed="13.89" length="9.03" shape="589.60,445.20 592.05,444.85 593.80,443.80 594.85,442.05 595.21,439.60"/>
    </edge>
    <edge id=":7_10" function="internal">
        <lane id=":7_10_0" index="0" speed="13.89" length="20.87" shape="589.60,445.20 610.47,445.27"/>
    </edge>
    <edge id=":7_11" function="internal">
        <lane id=":7_11_0" index="0" speed="13.89" length="19.39" shape="589.60,448.40 594.85,449.15 598.60,451.41 600.85,455.17 601.60,460.44"/>
    </edge>
    <edge id=":9_0" function="internal">
        <lane id=":9_0_0" index="0" speed="13.89" length="9.06" shape="295.20,310.40 294.85,307.95 293.79,306.19 292.03,305.14 289.57,304.79"/>
    </edge>
    <edge id=":9_1" function="internal">
        <lane id=":9_1_0" index="0" speed="13.89" length="20.81" shape="295.20,310.40 295.18,289.59"/>
    </edge>
    <edge id=":9_2" function="internal">
        <lane id=":9_2_0" index="0" speed="13.89" length="19.35" shape="298.40,310.40 299.15,305.15 301.40,301.40 305.15,299.15 310.40,298.40"/>
    </edge>
    <edge id=":9_3" function="internal">
        <lane id=":9_3_0" index="0" speed="13.89" length="9.03" shape="310.40,304.80 307.95,305.15 306.20,306.20 305.15,307.95 304.80,310.40"/>
    </edge>
    <edge id=":9_4" function="internal">
        <lane id=":9_4_0" index="0" speed="13.89" length="20.83" shape="310.40,304.80 289.57,304.79"/>
    </edge>
    <edge id=":9_5" function="internal">
        <lane id=":9_5_0" index="0" speed="13.89" length="19.38" shape="310.40,301.60 305.15,300.85 301.40,298.60 299.14,294.84 298.38,289.58"/>
    </edge>
    <edge id=":9_6" function="internal">
        <lane id=":9_6_0" index="0" speed="13.89" length="9.07" shape="304.78,289.57 305.13,292.03 306.19,293.79 307.94,294.85 310.40,295.20"/>
    </edge>
    <edge id=":9_7" function="internal">
        <lane id=":9_7_0" index="0" speed="13.89" length="20.83" shape="304.78,289.57 304.80,310.40"/>
    </edge>
    <edge id=":9_8" function="internal">
        <lane id=":9_8_0" index="0" speed="13.89" length="19.38" shape="301.58,289.57 300.84,294.83 298.59,298.59 294.84,300.84 289.57,301.59"/>
    </edge>
    <edge id=":9_9" function="internal">
        <lane id=":9_9_0" index="0" speed="13.89" length="9.03" shape="289.58,295.19 292.04,294.84 293.78,293.79 294.83,292.04 295.18,289.59"/>
    </edge>
    <edge id=":9_10" function="internal">
        <lane id=":9_10_0" index="0" speed="13.89" length="20.82" shape="289.58,295.19 310.40,295.20"/>
    </edge>
    <edge id=":9_11" function="internal">
        <lane id=":9_11_0" index="0" speed="13.89" length="19.38" shape="289.58,298.39 294.84,299.14 298.59,301.40 300.85,305.15 301.60,310.40"/>
    </edge>
    <edge id=":J5_0" function="internal">
        <lane id=":J5_0_0" index="0" speed="13.89" length="9.07" shape="595.28,310.84 594.93,308.38 593.88,306.62 592.13,305.56 589.67,305.20"/>
    </edge>
    <edge id=":J5_1" function="internal">
        <lane id=":J5_1_0" index="0" speed="13.89" length="20.83" shape="595.28,310.84 595.31,290.01"/>
    </edge>
    <edge id=":J5_2" function="internal">
        <lane id=":J5_2_0" index="0" speed="13.89" length="19.37" shape="598.48,310.85 599.24,305.59 601.49,301.84 605.25,299.60 610.51,298.86"/>
    </edge>
    <edge id=":J5_3" function="internal">
        <lane id=":J5_3_0" index="0" speed="13.89" length="9.03" shape="610.49,305.26 608.04,305.61 606.29,306.65 605.24,308.40 604.88,310.85"/>
    </edge>
    <edge id=":J5_4" function="internal">
        <lane id=":J5_4_0" index="0" speed="13.89" length="20.82" shape="610.49,305.26 589.67,305.20"/>
    </edge>
    <edge id=":J5_5" function="internal">
        <lane id=":J5_5_0" index="0" speed="13.89" length="19.38" shape="610.50,302.06 605.25,301.30 601.50,299.03 599.25,295.27 598.51,290.02"/>
    </edge>
    <edge id=":J5_6" function="internal">
        <lane id=":J5_6_0" index="0" speed="13.89" length="9.07" shape="604.91,290.03 605.25,292.49 606.31,294.25 608.06,295.30 610.52,295.66"/>
    </edge>
    <edge id=":J5_7" function="internal">
        <lane id=":J5_7_0" index="0" speed="13.89" length="20.82" shape="604.91,290.03 604.88,310.85"/>
    </edge>
    <edge id=":J5_8" function="internal">
        <lane id=":J5_8_0" index="0" speed="13.89" length="19.36" shape="601.71,290.02 600.95,295.28 598.69,299.02 594.93,301.26 589.68,302.00"/>
    </edge>
    <edge id=":J5_9" function="internal">
        <lane id=":J5_9_0" index="0" speed="13.89" length="9.03" shape="589.70,295.60 592.15,295.26 593.90,294.21 594.95,292.46 595.31,290.01"/>
    </edge>
    <edge id=":J5_10" function="internal">
        <lane id=":J5_10_0" index="0" speed="13.89" length="20.83" shape="589.70,295.60 610.52,295.66"/>
    </edge>
    <edge id=":J5_11" function="internal">
        <lane id=":J5_11_0" index="0" speed="13.89" length="19.38" shape="589.69,298.80 594.94,299.57 598.69,301.83 600.94,305.59 601.68,310.85"/>
    </edge>

    <edge id="-E3" from="7" to="3" priority="-1">
        <lane id="-E3_0" index="0" speed="13.89" length="129.16" shape="604.80,460.44 604.80,589.60"/>
        <lane id="-E3_1" index="1" speed="13.89" length="129.16" shape="601.60,460.44 601.60,589.60"/>
    </edge>
    <edge id="-E9" from="J7" to="10" priority="-1">
        <lane id="-E9_0" index="0" speed="13.89" length="157.89" shape="455.61,131.72 454.85,289.61"/>
        <lane id="-E9_1" index="1" speed="13.89" length="157.89" shape="452.41,131.71 451.65,289.60"/>
    </edge>
    <edge id="-h11" from="0" to="1" priority="1">
        <lane id="-h11_0" index="0" speed="13.89" length="139.60" shape="150.00,595.20 289.60,595.20"/>
        <lane id="-h11_1" index="1" speed="13.89" length="139.60" shape="150.00,598.40 289.60,598.40"/>
    </edge>
    <edge id="-h12" from="1" to="2" priority="1">
        <lane id="-h12_0" index="0" speed="13.89" length="129.20" shape="310.40,595.20 439.60,595.20"/>
        <lane id="-h12_1" index="1" speed="13.89" length="129.20" shape="310.40,598.40 439.60,598.40"/>
    </edge>
    <edge id="-h13" from="2" to="3" priority="1">
        <lane id="-h13_0" index="0" speed="13.89" length="129.18" shape="460.40,595.20 589.58,595.20"/>
        <lane id="-h13_1" index="1" speed="13.89" length="129.18" shape="460.40,598.40 589.58,598.40"/>
    </edge>
    <edge id="-h14" from="J0" to="3" priority="-1">
        <lane id="-h14_0" index="0" speed="13.89" length="136.32" shape="746.70,604.97 610.39,604.81"/>
        <lane id="-h14_1" index="1" speed="13.89" length="136.32" shape="746.71,601.77 610.39,601.61"/>
    </edge>
    <edge id="-h21" from="4" to="5" priority="1">
        <lane id="-h21_0" index="0" speed="13.89" length="139.60" shape="150.00,445.20 289.60,445.20"/>
        <lane id="-h21_1" index="1" speed="13.89" length="139.60" shape="150.00,448.40 289.60,448.40"/>
    </edge>
    <edge id="-h22" from="5" to="6" priority="1">
        <lane id="-h22_0" index="0" speed="13.89" length="129.20" shape="310.40,445.20 439.60,445.20"/>
        <lane id="-h22_1" index="1" speed="13.89" length="129.20" shape="310.40,448.40 439.60,448.40"/>
    </edge>
    <edge id="-h23" from="6" to="7" priority="1">
        <lane id="-h23_0" index="0" speed="13.89" length="129.20" shape="460.40,445.20 589.60,445.20"/>
        <lane id="-h23_1" index="1" speed="13.89" length="129.20" shape="460.40,448.40 589.60,448.40"/>
    </edge>
    <edge id="-h24" from="J1" to="7" priority="-1">
        <lane id="-h24_0" index="0" speed="13.89" length="136.49" shape="746.90,455.77 610.41,454.87"/>
        <lane id="-h24_1" index="1" speed="13.89" length="136.49" shape="746.92,452.57 610.43,451.67"/>
    </edge>
    <edge id="-h31" from="J4" to="9" priority="-1">
        <lane id="-h31_0" index="0" speed="13.89" length="143.35" shape="146.24,294.98 289.58,295.19"/>
        <lane id="-h31_1" index="1" speed="13.89" length="143.35" shape="146.23,298.18 289.58,298.39"/>
    </edge>
    <edge id="-h32" from="10" to="9" priority="-1">
        <lane id="-h32_0" index="0" speed="13.89" length="129.20" shape="439.60,304.80 310.40,304.80"/>
        <lane id="-h32_1" index="1" speed="13.89" length="129.20" shape="439.60,301.60 310.40,301.60"/>
    </edge>
    <edge id="-h33" from="J5" to="10" priority="-1">
        <lane id="-h33_0" index="0" speed="13.89" length="129.26" shape="589.67,305.20 460.40,304.83"/>
        <lane id="-h33_1" index="1" speed="13.89" length="129.26" shape="589.68,302.00 460.41,301.63"/>
    </edge>
    <edge id="-h34" from="J9" to="J5" priority="-1">
        <lane id="-h34_0" index="0" speed="13.89" length="135.01" shape="745.50,305.69 610.49,305.26"/>
        <lane id="-h34_1" index="1" speed="13.89" length="135.01" shape="745.51,302.49 610.50,302.06"/>
    </edge>
    <edge id="-v11" from="17" to="1" priority="1">
        <lane id="-v11_0" index="0" speed="13.89" length="139.60" shape="295.20,750.00 295.20,610.40"/>
        <lane id="-v11_1" index="1" speed="13.89" length="139.60" shape="298.40,750.00 298.40,610.40"/>
    </edge>
    <edge id="-v12" from="1" to="5" priority="1">
        <lane id="-v12_0" index="0" speed="13.89" length="129.20" shape="295.20,589.60 295.20,460.40"/>
        <lane id="-v12_1" index="1" speed="13.89" length="129.20" shape="298.40,589.60 298.40,460.40"/>
    </edge>
    <edge id="-v13" from="5" to="9" priority="1">
        <lane id="-v13_0" index="0" speed="13.89" length="129.20" shape="295.20,439.60 295.20,310.40"/>
        <lane id="-v13_1" index="1" speed="13.89" length="129.20" shape="298.40,439.60 298.40,310.40"/>
    </edge>
    <edge id="-v14" from="9" to="J6" priority="-1">
        <lane id="-v14_0" index="0" speed="13.89" length="156.26" shape="295.18,289.59 294.83,133.33"/>
        <lane id="-v14_1" index="1" speed="13.89" length="156.26" shape="298.38,289.58 298.03,133.32"/>
    </edge>
    <edge id="-v21" from="18" to="2" priority="1">
        <lane id="-v21_0" index="0" speed="13.89" length="139.60" shape="445.20,750.00 445.20,610.40"/>
        <lane id="-v21_1" index="1" speed="13.89" length="139.60" shape="448.40,750.00 448.40,610.40"/>
    </edge>
    <edge id="-v22" from="2" to="6" priority="1">
        <lane id="-v22_0" index="0" speed="13.89" length="129.20" shape="445.20,589.60 445.20,460.40"/>
        <lane id="-v22_1" index="1" speed="13.89" length="129.20" shape="448.40,589.60 448.40,460.40"/>
    </edge>
    <edge id="-v23" from="6" to="10" priority="1">
        <lane id="-v23_0" index="0" speed="13.89" length="129.18" shape="445.20,439.60 445.20,310.42"/>
        <lane id="-v23_1" index="1" speed="13.89" length="129.18" shape="448.40,439.60 448.40,310.42"/>
    </edge>
    <edge id="-v31" from="J3" to="3" priority="-1">
        <lane id="-v31_0" index="0" speed="13.89" length="139.47" shape="594.72,749.87 595.17,610.41"/>
        <lane id="-v31_1" index="1" speed="13.89" length="139.47" shape="597.92,749.88 598.37,610.42"/>
    </edge>
    <edge id="-v33" from="J5" to="7" priority="-1">
        <lane id="-v33_0" index="0" speed="13.89" length="128.76" shape="604.88,310.85 604.81,439.61"/>
        <lane id="-v33_1" index="1" speed="13.89" length="128.76" shape="601.68,310.85 601.61,439.60"/>
    </edge>
    <edge id="-v34" from="J8" to="J5" priority="-1">
        <lane id="-v34_0" index="0" speed="13.89" length="159.38" shape="605.15,130.65 604.91,290.03"/>
        <lane id="-v34_1" index="1" speed="13.89" length="159.38" shape="601.95,130.64 601.71,290.02"/>
    </edge>
    <edge id="E3" from="3" to="7" priority="-1">
        <lane id="E3_0" index="0" speed="13.89" length="129.16" shape="595.20,589.60 595.20,460.44"/>
        <lane id="E3_1" index="1" speed="13.89" length="129.16" shape="598.40,589.60 598.40,460.44"/>
    </edge>
    <edge id="E9" from="10" to="J7" priority="-1">
        <lane id="E9_0" index="0" speed="13.89" length="157.89" shape="445.25,289.56 446.01,131.68"/>
        <lane id="E9_1" index="1" speed="13.89" length="157.89" shape="448.45,289.58 449.21,131.69"/>
    </edge>
    <edge id="h11" from="1" to="0" priority="1">
        <lane id="h11_0" index="0" speed="13.89" length="139.60" shape="289.60,604.80 150.00,604.80"/>
        <lane id="h11_1" index="1" speed="13.89" length="139.60" shape="289.60,601.60 150.00,601.60"/>
    </edge>
    <edge id="h12" from="2" to="1" priority="1">
        <lane id="h12_0" index="0" speed="13.89" length="129.20" shape="439.60,604.80 310.40,604.80"/>
        <lane id="h12_1" index="1" speed="13.89" length="129.20" shape="439.60,601.60 310.40,601.60"/>
    </edge>
    <edge id="h13" from="3" to="2" priority="1">
        <lane id="h13_0" index="0" speed="13.89" length="129.18" shape="589.58,604.80 460.40,604.80"/>
        <lane id="h13_1" index="1" speed="13.89" length="129.18" shape="589.58,601.60 460.40,601.60"/>
    </edge>
    <edge id="h14" from="3" to="J0" priority="-1">
        <lane id="h14_0" index="0" speed="13.89" length="136.32" shape="610.40,595.21 746.72,595.37"/>
        <lane id="h14_1" index="1" speed="13.89" length="136.32" shape="610.39,598.41 746.71,598.57"/>
    </edge>
    <edge id="h21" from="5" to="4" priority="1">
        <lane id="h21_0" index="0" speed="13.89" length="139.60" shape="289.60,454.80 150.00,454.80"/>
        <lane id="h21_1" index="1" speed="13.89" length="139.60" shape="289.60,451.60 150.00,451.60"/>
    </edge>
    <edge id="h22" from="6" to="5" priority="1">
        <lane id="h22_0" index="0" speed="13.89" length="129.20" shape="439.60,454.80 310.40,454.80"/>
        <lane id="h22_1" index="1" speed="13.89" length="129.20" shape="439.60,451.60 310.40,451.60"/>
    </edge>