<?xml version="1.0" encoding="UTF-8"?>

<!-- generated on 2023-03-21 16:21:48.561903 by randomTrips.py v1_15_0+0002-e6790248698
<configuration>
    <end value="100000"/>
    <fringe-factor value="20"/>
    <net-file value="nets/3x3grid/3x3.net.xml"/>
    <period value="8.0"/>
    <route-file value="random100.rou.xml"/>
    <trip-attributes value="departLane=&quot;best&quot; departSpeed=&quot;max&quot;"/>
</configuration>
-->

<!-- generated on 2023-03-21 16:21:47 by Eclipse SUMO duarouter Version 1.15.0
<configuration xmlns:xsi="http://www.w3.org/2001/XMLSchema-instance" xsi:noNamespaceSchemaLocation="http://sumo.dlr.de/xsd/duarouterConfiguration.xsd">

    <input>
        <net-file value="nets/3x3grid/3x3.net.xml"/>
        <route-files value="trips.trips.xml"/>
    </input>

    <output>
        <output-file value="random100.rou.xml"/>
        <alternatives-output value="NUL"/>
    </output>

    <time>
        <begin value="0"/>
        <end value="100000"/>
    </time>

    <report>
        <no-warnings value="true"/>
        <ignore-errors value="true"/>
        <no-step-log value="true"/>
    </report>

</configuration>
-->

<routes xmlns:xsi="http://www.w3.org/2001/XMLSchema-instance" xsi:noNamespaceSchemaLocation="http://sumo.dlr.de/xsd/routes_file.xsd">
    <vehicle id="0" depart="0.00" departLane="best" departSpeed="max">
        <route edges="-v13 h32 v23 -h23 v33 -h33"/>
    </vehicle>
    <vehicle id="1" depart="8.00" departLane="best" departSpeed="max">
        <route edges="-h21 v12 h11"/>
    </vehicle>
    <vehicle id="2" depart="16.00" departLane="best" departSpeed="max">
        <route edges="-v31 E3 v33 h34"/>
    </vehicle>
    <vehicle id="3" depart="24.00" departLane="best" departSpeed="max">
        <route edges="h22 -v13 -v14"/>
    </vehicle>
    <vehicle id="4" depart="32.00" departLane="best" departSpeed="max">
        <route edges="-h31 v13 -h22 v22 h12 -v12"/>
    </vehicle>
    <vehicle id="5" depart="40.00" departLane="best" departSpeed="max">
        <route edges="-h14 E3 h24"/>
    </vehicle>
    <vehicle id="6" depart="48.00" departLane="best" departSpeed="max">
        <route edges="-E9 v23 -h23 v33 -h33 E9"/>
    </vehicle>
    <vehicle id="7" depart="56.00" departLane="best" departSpeed="max">
        <route edges="-v21 -v22 h22 -v13 h31"/>
    </vehicle>
    <vehicle id="8" depart="64.00" departLane="best" departSpeed="max">
        <route edges="-h14 h13 -v22 h22 -v13 h31"/>
    </vehicle>
    <vehicle id="9" depart="72.00" departLane="best" departSpeed="max">
        <route edges="-v34 -h33 v23 h22 v12 -h12"/>
    </vehicle>
    <vehicle id="10" depart="80.00" departLane="best" departSpeed="max">
        <route edges="-v34 -v33 h23 v22 h12 v11"/>
    </vehicle>
    <vehicle id="11" depart="88.00" departLane="best" departSpeed="max">
        <route edges="-h24 v33 -h33 E9"/>
    </vehicle>
    <vehicle id="12" depart="96.00" departLane="best" departSpeed="max">
        <route edges="v14 h32 v23 -h23 -E3 h14"/>
    </vehicle>
    <vehicle id="13" depart="104.00" departLane="best" departSpeed="max">
        <route edges="-h11 -v12 -v13 -v14"/>
    </vehicle>
    <vehicle id="14" depart="112.00" departLane="best" departSpeed="max">
        <route edges="-v34 h34"/>
    </vehicle>
    <vehicle id="15" depart="120.00" departLane="best" departSpeed="max">
        <route edges="-v34 -v33 h23 v22 h12 v11"/>
    </vehicle>
    <vehicle id="16" depart="128.00" departLane="best" departSpeed="max">
        <route edges="-h34 v34"/>
    </vehicle>
    <vehicle id="17" depart="136.00" departLane="best" departSpeed="max">
        <route edges="-h24 v33 -h33 -h32 h31"/>
    </vehicle>
    <vehicle id="18" depart="144.00" departLane="best" departSpeed="max">
        <route edges="-v34 h34"/>
    </vehicle>
    <vehicle id="19" depart="152.00" departLane="best" departSpeed="max">
        <route edges="-v34 -h33 -h32 h31"/>
    </vehicle>
    <vehicle id="20" depart="160.00" departLane="best" departSpeed="max">
        <route edges="-v21 -v22 h22 -v13 -v14"/>
    </vehicle>
    <vehicle id="21" depart="168.00" departLane="best" departSpeed="max">
        <route edges="-h14 E3 h23 v22 -h13 h14"/>
    </vehicle>
    <vehicle id="22" depart="176.00" departLane="best" departSpeed="max">
        <route edges="-h11 -h12 -v22 h22 v12 h11"/>
    </vehicle>
    <vehicle id="23" depart="184.00" departLane="best" departSpeed="max">
        <route edges="-h11 -v12 -h22 v22 h12"/>
    </vehicle>
    <vehicle id="24" depart="192.00" departLane="best" departSpeed="max">
        <route edges="-v12 h21"/>
    </vehicle>
    <vehicle id="25" depart="200.00" departLane="best" departSpeed="max">
        <route edges="-h24 -E3 h13 h12 h11"/>
    </vehicle>
    <vehicle id="26" depart="208.00" departLane="best" departSpeed="max">
        <route edges="-h21 -h22 -v23 h33 v34"/>
    </vehicle>
    <vehicle id="27" depart="216.00" departLane="best" departSpeed="max">
        <route edges="-v21 -h13 E3 v33 h34"/>
    </vehicle>
    <vehicle id="28" depart="224.00" departLane="best" departSpeed="max">
        <route edges="-h14 h13 h12 v11"/>
    </vehicle>
    <vehicle id="29" depart="232.00" departLane="best" departSpeed="max">
        <route edges="-h14 h13 h12 -v12 h21"/>
    </vehicle>
    <vehicle id="30" depart="240.00" departLane="best" departSpeed="max">
        <route edges="v22 -h13 E3 v33 h34"/>
    </vehicle>
    <vehicle id="31" depart="248.00" departLane="best" departSpeed="max">
        <route edges="-v11 -h12 -v22 h22 v12 v11"/>
    </vehicle>
    <vehicle id="32" depart="256.00" departLane="best" departSpeed="max">
        <route edges="-v34 -v33 -E3 h13 v21"/>
    </vehicle>
    <vehicle id="33" depart="264.00" departLane="best" departSpeed="max">
        <route edges="-h14 h13 -v22 h22 -v13"/>
    </vehicle>
    <vehicle id="34" depart="272.00" departLane="best" departSpeed="max">
        <route edges="-h22 v22 h12 h11"/>
    </vehicle>
    <vehicle id="35" depart="280.00" departLane="best" departSpeed="max">
        <route edges="-h14 E3 v33 v34"/>
    </vehicle>
    <vehicle id="36" depart="288.00" departLane="best" departSpeed="max">
        <route edges="-v34 -v33 -E3 h14"/>
    </vehicle>
    <vehicle id="37" depart="296.00" departLane="best" departSpeed="max">
        <route edges="-v21 h12 -v12 h21"/>
    </vehicle>
    <vehicle id="38" depart="304.00" departLane="best" departSpeed="max">
        <route edges="v14 h32 h33 -v33 h24"/>
    </vehicle>
    <vehicle id="39" depart="312.00" departLane="best" departSpeed="max">
        <route edges="-h21 v12 h11"/>
    </vehicle>
    <vehicle id="40" depart="320.00" departLane="best" departSpeed="max">
        <route edges="-v11 h11"/>
    </vehicle>
    <vehicle id="41" depart="328.00" departLane="best" departSpeed="max">
        <route edges="-v11 -h12 -h13 v31"/>
    </vehicle>
    <vehicle id="42" depart="336.00" departLane="best" departSpeed="max">
        <route edges="-h31 v13 v12 h11"/>
    </vehicle>
    <vehicle id="43" depart="344.00" departLane="best" departSpeed="max">
        <route edges="v33 -h33 v23 -h23 h24"/>
    </vehicle>
    <vehicle id="44" depart="352.00" departLane="best" departSpeed="max">
        <route edges="-h11 -v12 -v13 -v14"/>
    </vehicle>
    <vehicle id="45" depart="360.00" departLane="best" departSpeed="max">
        <route edges="-h11 -h12 -v22 -h23 v33 h34"/>
    </vehicle>
    <vehicle id="46" depart="368.00" departLane="best" departSpeed="max">
        <route edges="-v31 h13 h12 -v12 h21"/>
    </vehicle>
    <vehicle id="47" depart="376.00" departLane="best" departSpeed="max">
        <route edges="-E9 -h32 v13 h21"/>
    </vehicle>
    <vehicle id="48" depart="384.00" departLane="best" departSpeed="max">
        <route edges="v23 h22 -v13 h31"/>
    </vehicle>
    <vehicle id="49" depart="392.00" departLane="best" departSpeed="max">
        <route edges="v14 v13 -h22 v22 -h13 v31"/>
    </vehicle>
    <vehicle id="50" depart="400.00" departLane="best" departSpeed="max">
        <route edges="-E9 v23 v22 h12 v11"/>
    </vehicle>
    <vehicle id="51" depart="408.00" departLane="best" departSpeed="max">
        <route edges="-v21 -v22 h22 -v13 h31"/>
    </vehicle>
    <vehicle id="52" depart="416.00" departLane="best" departSpeed="max">
        <route edges="-h21 -h22 -h23 v33 h34"/>
    </vehicle>
    <vehicle id="53" depart="424.00" departLane="best" departSpeed="max">
        <route edges="-h11 -v12 h21"/>
    </vehicle>
    <vehicle id="54" depart="432.00" departLane="best" departSpeed="max">
        <route edges="-h31 h32 h33 v34"/>
    </vehicle>
    <vehicle id="55" depart="440.00" departLane="best" departSpeed="max">
        <route edges="-v34 -h33 v23 h22 v12 h11"/>
    </vehicle>
    <vehicle id="56" depart="448.00" departLane="best" departSpeed="max">
        <route edges="-h34 -h33 E9"/>
    </vehicle>
    <vehicle id="57" depart="456.00" departLane="best" departSpeed="max">
        <route edges="v13 -h22 v22 -h13 v31"/>
    </vehicle>
    <vehicle id="58" depart="464.00" departLane="best" departSpeed="max">
        <route edges="-h21 -h22 -h23 v33 h34"/>
    </vehicle>
    <vehicle id="59" depart="472.00" departLane="best" departSpeed="max">
        <route edges="-v11 -v12 -h22 -v23 E9"/>
    </vehicle>
    <vehicle id="60" depart="480.00" departLane="best" departSpeed="max">
        <route edges="-v31 h13 -v22 h22 -v13 h31"/>
    </vehicle>
    <vehicle id="61" depart="488.00" departLane="best" departSpeed="max">
        <route edges="-v31 h13 -v22 h22 -v13 h31"/>
    </vehicle>
    <vehicle id="62" depart="496.00" departLane="best" departSpeed="max">
        <route edges="-E3 h14"/>
    </vehicle>
    <vehicle id="63" depart="504.00" departLane="best" departSpeed="max">
        <route edges="-E9 h33 v34"/>
    </vehicle>
    <vehicle id="64" depart="512.00" departLane="best" departSpeed="max">
        <route edges="-v34 -v33 -E3 h13 v21"/>
    </vehicle>
    <vehicle id="65" depart="520.00" departLane="best" departSpeed="max">
        <route edges="-h21 -v13 -v14"/>
    </vehicle>
    <vehicle id="66" depart="528.00" departLane="best" departSpeed="max">
        <route edges="-v34 -h33 v23 -h23 v33 v34"/>
    </vehicle>
    <vehicle id="67" depart="536.00" departLane="best" departSpeed="max">
        <route edges="-h11 -h12 -h13 E3 h24"/>
    </vehicle>
    <vehicle id="68" depart="544.00" departLane="best" departSpeed="max">
        <route edges="-E9 -h32 v13"/>
    </vehicle>
    <vehicle id="69" depart="552.00" departLane="best" departSpeed="max">
        <route edges="-v31 E3 v33 -h33 E9"/>
    </vehicle>
    <vehicle id="70" depart="560.00" departLane="best" departSpeed="max">
        <route edges="-h32 h31"/>
    </vehicle>
    <vehicle id="71" depart="568.00" departLane="best" departSpeed="max">
        <route edges="-h21 -h22 v22 -h13 v31"/>
    </vehicle>
    <vehicle id="72" depart="576.00" departLane="best" departSpeed="max">
        <route edges="-h31 v13 v12 h11"/>
    </vehicle>
    <vehicle id="73" depart="584.00" departLane="best" departSpeed="max">
        <route edges="-h34 -v33 h23 v22 h12 v11"/>
    </vehicle>
    <vehicle id="74" depart="592.00" departLane="best" departSpeed="max">
        <route edges="-h14 E3 h23 v22 -h13 h14"/>
    </vehicle>
    <vehicle id="75" depart="600.00" departLane="best" departSpeed="max">
        <route edges="v23 -h23 v33 h34"/>
    </vehicle>
    <vehicle id="76" depart="608.00" departLane="best" departSpeed="max">
        <route edges="-h31 h32 h33 -v33 h24"/>
    </vehicle>
    <vehicle id="77" depart="616.00" departLane="best" departSpeed="max">
        <route edges="-h11 -h12 -v22 h22 v12 h11"/>
    </vehicle>
    <vehicle id="78" depart="624.00" departLane="best" departSpeed="max">
        <route edges="-h24 v33 -h33 -h32 h31"/>
    </vehicle>
    <vehicle id="79" depart="632.00" departLane="best" departSpeed="max">
        <route edges="-h14 h13 h12 h11"/>
    </vehicle>
    <vehicle id="80" depart="640.00" departLane="best" departSpeed="max">
        <route edges="-E9 h33 h34"/>
    </vehicle>
    <vehicle id="81" depart="648.00" departLane="best" departSpeed="max">
        <route edges="-h14 v31"/>
    </vehicle>
    <vehicle id="82" depart="656.00" departLane="best" departSpeed="max">
        <route edges="-v34 -h33 -h32 -v14"/>
    </vehicle>
    <vehicle id="83" depart="664.00" departLane="best" departSpeed="max">
        <route edges="-h14 E3 v33 h34"/>
    </vehicle>
    <vehicle id="84" depart="672.00" departLane="best" departSpeed="max">
        <route edges="-h14 E3 v33 -h33 E9"/>
    </vehicle>
    <vehicle id="85" depart="680.00" departLane="best" departSpeed="max">
        <route edges="v14 h31"/>
    </vehicle>
    <vehicle id="86" depart="688.00" departLane="best" departSpeed="max">
        <route edges="-h31 v13 v12 -h12 v21"/>
    </vehicle>
    <vehicle id="87" depart="696.00" departLane="best" departSpeed="max">
        <route edges="-v34 -h33 E9"/>
    </vehicle>
    <vehicle id="88" depart="704.00" departLane="best" departSpeed="max">
        <route edges="-h11 -v12 h21"/>
    </vehicle>
    <vehicle id="89" depart="712.00" departLane="best" departSpeed="max">
        <route edges="-h31 h32 h33 -v33 h24"/>
    </vehicle>
    <vehicle id="90" depart="720.00" departLane="best" departSpeed="max">
        <route edges="-v31 E3 v33 h34"/>
    </vehicle>
    <vehicle id="91" depart="728.00" departLane="best" departSpeed="max">
        <route edges="v14 v13 -h22 -v23 -h32 -v14"/>
    </vehicle>
    <vehicle id="92" depart="736.00" departLane="best" departSpeed="max">
        <route edges="-h31 h32 v23 -h23 -E3 h14"/>
    </vehicle>
    <vehicle id="93" depart="744.00" departLane="best" departSpeed="max">
        <route edges="-v34 -h33 v23 h22 v12 h11"/>
    </vehicle>
    <vehicle id="94" depart="752.00" departLane="best" departSpeed="max">
        <route edges="-h14 E3 h24"/>
    </vehicle>
    <vehicle id="95" depart="760.00" departLane="best" departSpeed="max">
        <route edges="-h31 v13 -h22 v22 h12"/>
    </vehicle>
    <vehicle id="96" depart="768.00" departLane="best" departSpeed="max">
        <route edges="-h21 -h22 -h23 v33"/>
    </vehicle>
    <vehicle id="97" depart="776.00" departLane="best" departSpeed="max">
        <route edges="-h31 v13 -h22 v22 -h13 v31"/>
    </vehicle>
    <vehicle id="98" depart="784.00" departLane="best" departSpeed="max">
        <route edges="-h34 -h33 -h32 -v14"/>
    </vehicle>
    <vehicle id="99" depart="792.00" departLane="best" departSpeed="max">
        <route edges="v33 -h33 v23 v22 v21"/>
    </vehicle>
    <vehicle id="100" depart="800.00" departLane="best" departSpeed="max">
        <route edges="v14 h32 h33 v34"/>
    </vehicle>
    <vehicle id="101" depart="808.00" departLane="best" departSpeed="max">
        <route edges="-v34 -h33 E9"/>
    </vehicle>
    <vehicle id="102" depart="816.00" departLane="best" departSpeed="max">
        <route edges="-h34 -v33 h23 h22 v12 h11"/>
    </vehicle>
    <vehicle id="103" depart="824.00" departLane="best" departSpeed="max">
        <route edges="-h31 -v14"/>
    </vehicle>
    <vehicle id="104" depart="832.00" departLane="best" departSpeed="max">
        <route edges="-h24 v33 v34"/>
    </vehicle>
    <vehicle id="105" depart="840.00" departLane="best" departSpeed="max">
        <route edges="-h21 v12 -h12 v21"/>
    </vehicle>
    <vehicle id="106" depart="848.00" departLane="best" departSpeed="max">
        <route edges="-h31 v13 h21"/>
    </vehicle>
    <vehicle id="107" depart="856.00" departLane="best" departSpeed="max">
        <route edges="v14 h32 h33 v34"/>
    </vehicle>
    <vehicle id="108" depart="864.00" departLane="best" departSpeed="max">
        <route edges="-h34 -v33 h23 v22 h12 v11"/>
    </vehicle>
    <vehicle id="109" depart="872.00" departLane="best" departSpeed="max">
        <route edges="-h11 -h12 -h13 h14"/>
    </vehicle>
    <vehicle id="110" depart="880.00" departLane="best" departSpeed="max">
        <route edges="v14 h31"/>
    </vehicle>
    <vehicle id="111" depart="888.00" departLane="best" departSpeed="max">
        <route edges="-h34 -v33 h23 v22 h12 v11"/>
    </vehicle>
    <vehicle id="112" depart="896.00" departLane="best" departSpeed="max">
        <route edges="-E9 -h32 h31"/>
    </vehicle>
    <vehicle id="113" depart="904.00" departLane="best" departSpeed="max">
        <route edges="-h34 -v33 -E3 v31"/>
    </vehicle>
    <vehicle id="114" depart="912.00" departLane="best" departSpeed="max">
        <route edges="-h12 -v22 -h23 v33 v34"/>
    </vehicle>
    <vehicle id="115" depart="920.00" departLane="best" departSpeed="max">
        <route edges="-h11 -v12 -h22 -v23 E9"/>
    </vehicle>
    <vehicle id="116" depart="928.00" departLane="best" departSpeed="max">
        <route edges="-v11 -h12 -v22 -h23 v33 h34"/>
    </vehicle>
    <vehicle id="117" depart="936.00" departLane="best" departSpeed="max">
        <route edges="-h14 E3 h23 -v23 h33 -v33"/>
    </vehicle>
    <vehicle id="118" depart="944.00" departLane="best" departSpeed="max">
        <route edges="h22 v12 h11"/>
    </vehicle>
    <vehicle id="119" depart="952.00" departLane="best" departSpeed="max">
        <route edges="-v11 -h12 -v22 -h23 v33 h34"/>
    </vehicle>
    <vehicle id="120" depart="960.00" departLane="best" departSpeed="max">
        <route edges="-h31 v13 -h22 -v23 -h32 h31"/>
    </vehicle>
    <vehicle id="121" depart="968.00" departLane="best" departSpeed="max">
        <route edges="-h34 v34"/>
    </vehicle>
    <vehicle id="122" depart="976.00" departLane="best" departSpeed="max">
        <route edges="-h14 h13 h12 v11"/>
    </vehicle>
    <vehicle id="123" depart="984.00" departLane="best" departSpeed="max">
        <route edges="-h21 -h22 -v23 -h32 v13 h21"/>
    </vehicle>
    <vehicle id="124" depart="992.00" departLane="best" departSpeed="max">
        <route edges="-v21 -h13 h14"/>
    </vehicle>
    <vehicle id="125" depart="1000.00" departLane="best" departSpeed="max">
        <route edges="-h22 v22 h12 v11"/>
    </vehicle>
    <vehicle id="126" depart="1008.00" departLane="best" departSpeed="max">
        <route edges="-E9 h33 -v33 h24"/>
    </vehicle>
    <vehicle id="127" depart="1016.00" departLane="best" departSpeed="max">
        <route edges="v33 v34"/>
    </vehicle>
    <vehicle id="128" depart="1024.00" departLane="best" departSpeed="max">
        <route edges="-E9 v23 h22 v12 h11"/>
    </vehicle>
    <vehicle id="129" depart="1032.00" departLane="best" departSpeed="max">
        <route edges="-h21 -h22 -v23 h33 v34"/>
    </vehicle>
    <vehicle id="130" depart="1040.00" departLane="best" departSpeed="max">
        <route edges="E3 h23 v22 -h13 v31"/>
    </vehicle>
    <vehicle id="131" depart="1048.00" departLane="best" departSpeed="max">
        <route edges="-h24 v33 -h33 E9"/>
    </vehicle>
    <vehicle id="132" depart="1056.00" departLane="best" departSpeed="max">
        <route edges="-v34 -v33 h23 v22 h12 v11"/>
    </vehicle>
    <vehicle id="133" depart="1064.00" departLane="best" departSpeed="max">
        <route edges="-v11 -h12 -v22 -h23 v33 v34"/>
    </vehicle>
    <vehicle id="134" depart="1072.00" departLane="best" departSpeed="max">
        <route edges="-v21 -h13"/>
    </vehicle>
    <vehicle id="135" depart="1080.00" departLane="best" departSpeed="max">
        <route edges="-v34 -v33 -E3 h14"/>
    </vehicle>
    <vehicle id="136" depart="1088.00" departLane="best" departSpeed="max">
        <route edges="-v21 -h13 E3 v33 v34"/>
    </vehicle>
    <vehicle id="137" depart="1096.00" departLane="best" departSpeed="max">
        <route edges="-h11 -v12 -h22 -v23"/>
    </vehicle>
    <vehicle id="138" depart="1104.00" departLane="best" departSpeed="max">
        <route edges="-h11 -v12 -v13 h31"/>
    </vehicle>
    <vehicle id="139" depart="1112.00" departLane="best" departSpeed="max">
        <route edges="-h21 -h22 -h23 v33 h34"/>
    </vehicle>
    <vehicle id="140" depart="1120.00" departLane="best" departSpeed="max">
        <route edges="-v22 h22 v12 h11"/>
    </vehicle>
    <vehicle id="141" depart="1128.00" departLane="best" departSpeed="max">
        <route edges="-v12 -h22 v22 h12 h11"/>
    </vehicle>
    <vehicle id="142" depart="1136.00" departLane="best" departSpeed="max">
        <route edges="-h34 -v33 -E3 v31"/>
    </vehicle>
    <vehicle id="143" depart="1144.00" departLane="best" departSpeed="max">
        <route edges="-v34 -h33 -h32 -v14"/>
    </vehicle>
    <vehicle id="144" depart="1152.00" departLane="best" departSpeed="max">
        <route edges="-h31 v13 -h22 v22 h12"/>
    </vehicle>
    <vehicle id="145" depart="1160.00" departLane="best" departSpeed="max">
        <route edges="-E3 h13 v21"/>
    </vehicle>
    <vehicle id="146" depart="1168.00" departLane="best" departSpeed="max">
        <route edges="-v13 h32 v23 h22 v12 h11"/>
    </vehicle>
    <vehicle id="147" depart="1176.00" departLane="best" departSpeed="max">
        <route edges="-v31 h13 -v22 h22 -v13 h31"/>
    </vehicle>
    <vehicle id="148" depart="1184.00" departLane="best" departSpeed="max">
        <route edges="-h31 v13 -h22 v22 -h13"/>
    </vehicle>
    <vehicle id="149" depart="1192.00" departLane="best" departSpeed="max">
        <route edges="-E9 h33 -v33 -E3 v31"/>
    </vehicle>
    <vehicle id="150" depart="1200.00" departLane="best" departSpeed="max">
        <route edges="h33 -v33 h23 -v23 -h32 h31"/>
    </vehicle>
    <vehicle id="151" depart="1208.00" departLane="best" departSpeed="max">
        <route edges="-v34 -h33 -h32 h31"/>
    </vehicle>
    <vehicle id="152" depart="1216.00" departLane="best" departSpeed="max">
        <route edges="-h11 -v12 -h22 -v23 E9"/>
    </vehicle>
    <vehicle id="153" depart="1224.00" departLane="best" departSpeed="max">
        <route edges="-h21 -h22 v22 -h13 v31"/>
    </vehicle>
    <vehicle id="154" depart="1232.00" departLane="best" departSpeed="max">
        <route edges="-v31 E3 h23 v22 -h13 v31"/>
    </vehicle>
    <vehicle id="155" depart="1240.00" departLane="best" departSpeed="max">
        <route edges="h32 v23 h22 v12 h11"/>
    </vehicle>
    <vehicle id="156" depart="1248.00" departLane="best" departSpeed="max">
        <route edges="-h21 -v13 -v14"/>
    </vehicle>
    <vehicle id="157" depart="1256.00" departLane="best" departSpeed="max">
        <route edges="-v31 E3 h23 v22 -h13 v31"/>
    </vehicle>
    <vehicle id="158" depart="1264.00" departLane="best" departSpeed="max">
        <route edges="-h31 h32 h33 h34"/>
    </vehicle>
    <vehicle id="159" depart="1272.00" departLane="best" departSpeed="max">
        <route edges="-h11 -v12 -h22 -v23 h33 v34"/>
    </vehicle>
    <vehicle id="160" depart="1280.00" departLane="best" departSpeed="max">
        <route edges="-v34 -h33 v23 -h23 v33 v34"/>
    </vehicle>
    <vehicle id="161" depart="1288.00" departLane="best" departSpeed="max">
        <route edges="-v34 -v33 -E3 v31"/>
    </vehicle>
    <vehicle id="162" depart="1296.00" departLane="best" departSpeed="max">
        <route edges="-E9 v23 v22 h12 v11"/>
    </vehicle>
    <vehicle id="163" depart="1304.00" departLane="best" departSpeed="max">
        <route edges="-h24 v33 v34"/>
    </vehicle>
    <vehicle id="164" depart="1312.00" departLane="best" departSpeed="max">
        <route edges="-v33 -E3 v31"/>
    </vehicle>
    <vehicle id="165" depart="1320.00" departLane="best" departSpeed="max">
        <route edges="-v34 -h33 v23 h22 v12 h11"/>
    </vehicle>
    <vehicle id="166" depart="1328.00" departLane="best" departSpeed="max">
        <route edges="-v31 h13 -v22 h22 -v13 -v14"/>
    </vehicle>
    <vehicle id="167" depart="1336.00" departLane="best" departSpeed="max">
        <route edges="-v34 -v33 -E3 v31"/>
    </vehicle>
    <vehicle id="168" depart="1344.00" departLane="best" departSpeed="max">
        <route edges="-h14 h13 v21"/>
    </vehicle>
    <vehicle id="169" depart="1352.00" departLane="best" departSpeed="max">
        <route edges="-h31 h32 v23 -h23 -E3 h14"/>
    </vehicle>
    <vehicle id="170" depart="1360.00" departLane="best" departSpeed="max">
        <route edges="-v31 h13 h12 h11"/>
    </vehicle>
    <vehicle id="171" depart="1368.00" departLane="best" departSpeed="max">
        <route edges="-E9 v23 -h23 v33 -h33 E9"/>
    </vehicle>
    <vehicle id="172" depart="1376.00" departLane="best" departSpeed="max">
        <route edges="-h24 -E3 v31"/>
    </vehicle>
    <vehicle id="173" depart="1384.00" departLane="best" departSpeed="max">
        <route edges="v14 v13 -h22 v22 h12"/>
    </vehicle>
    <vehicle id="174" depart="1392.00" departLane="best" departSpeed="max">
        <route edges="-v21 h12 -v12 h21"/>
    </vehicle>
    <vehicle id="175" depart="1400.00" departLane="best" departSpeed="max">
        <route edges="v14 h31"/>
    </vehicle>
    <vehicle id="176" depart="1408.00" departLane="best" departSpeed="max">
        <route edges="v14 v13 -h22 -v23"/>
    </vehicle>
    <vehicle id="177" depart="1416.00" departLane="best" departSpeed="max">
        <route edges="v14 h32 E9"/>
    </vehicle>
    <vehicle id="178" depart="1424.00" departLane="best" departSpeed="max">
        <route edges="v14 v13 v12 h11"/>
    </vehicle>
    <vehicle id="179" depart="1432.00" departLane="best" departSpeed="max">
        <route edges="-h11 -v12 h21"/>
    </vehicle>
    <vehicle id="180" depart="1440.00" departLane="best" departSpeed="max">
        <route edges="-v31 h14"/>
    </vehicle>
    <vehicle id="181" depart="1448.00" departLane="best" departSpeed="max">
        <route edges="-v11 -h12 -h13 E3 h24"/>
    </vehicle>
    <vehicle id="182" depart="1456.00" departLane="best" departSpeed="max">
        <route edges="-h24 v33 -h33 -h32 h31"/>
    </vehicle>
    <vehicle id="183" depart="1464.00" departLane="best" departSpeed="max">
        <route edges="-h21 v12 v11"/>
    </vehicle>
    <vehicle id="184" depart="1472.00" departLane="best" departSpeed="max">
        <route edges="-E3 h13 -v22 -h23 v33 v34"/>
    </vehicle>
    <vehicle id="185" depart="1480.00" departLane="best" departSpeed="max">
        <route edges="-h34 -v33 h23 v22 h12 v11"/>
    </vehicle>
    <vehicle id="186" depart="1488.00" departLane="best" departSpeed="max">
        <route edges="-v31 E3 v33 h34"/>
    </vehicle>
    <vehicle id="187" depart="1496.00" departLane="best" departSpeed="max">
        <route edges="-h24 v33 -h33 -h32 -v14"/>
    </vehicle>
    <vehicle id="188" depart="1504.00" departLane="best" departSpeed="max">
        <route edges="-v21 -h13 h14"/>
    </vehicle>
    <vehicle id="189" depart="1512.00" departLane="best" departSpeed="max">
        <route edges="-h21 -h22 v22 -h13 v31"/>
    </vehicle>
    <vehicle id="190" depart="1520.00" departLane="best" departSpeed="max">
        <route edges="-v23 h33 -v33 -E3 h14"/>
    </vehicle>
    <vehicle id="191" depart="1528.00" departLane="best" departSpeed="max">
        <route edges="-h21 -h22 -v23 -h32 v13 h21"/>
    </vehicle>
    <vehicle id="192" depart="1536.00" departLane="best" departSpeed="max">
        <route edges="-h31 h32 v23 -h23 -E3 h14"/>
    </vehicle>
    <vehicle id="193" depart="1544.00" departLane="best" departSpeed="max">
        <route edges="-h11 -v12 h21"/>
    </vehicle>
    <vehicle id="194" depart="1552.00" departLane="best" departSpeed="max">
        <route edges="v14 h32 h33 h34"/>
    </vehicle>
    <vehicle id="195" depart="1560.00" departLane="best" departSpeed="max">
        <route edges="h33 h34"/>
    </vehicle>
    <vehicle id="196" depart="1568.00" departLane="best" departSpeed="max">
        <route edges="-h21 -v13 h31"/>
    </vehicle>
    <vehicle id="197" depart="1576.00" departLane="best" departSpeed="max">
        <route edges="-E3 h14"/>
    </vehicle>
    <vehicle id="198" depart="1584.00" departLane="best" departSpeed="max">
        <route edges="-h31 v13 -h22 -v23 -h32 h31"/>
    </vehicle>
    <vehicle id="199" depart="1592.00" departLane="best" departSpeed="max">
        <route edges="-v21 -h13 E3 h24"/>
    </vehicle>
    <vehicle id="200" depart="1600.00" departLane="best" departSpeed="max">
        <route edges="-h31 v13 v12 h11"/>
    </vehicle>
    <vehicle id="201" depart="1608.00" departLane="best" departSpeed="max">
        <route edges="-h31 v13 -h22 v22 -h13 v31"/>
    </vehicle>
    <vehicle id="202" depart="1616.00" departLane="best" departSpeed="max">
        <route edges="-v31 E3 v33 -h33 E9"/>
    </vehicle>
    <vehicle id="203" depart="1624.00" departLane="best" departSpeed="max">
        <route edges="-h11 -h12 -h13 E3 h24"/>
    </vehicle>
    <vehicle id="204" depart="1632.00" departLane="best" departSpeed="max">
        <route edges="-v12 -h22 v22 -h13 h14"/>
    </vehicle>
    <vehicle id="205" depart="1640.00" departLane="best" departSpeed="max">
        <route edges="-v34 -v33 h23 v22 h12 v11"/>
    </vehicle>
    <vehicle id="206" depart="1648.00" departLane="best" departSpeed="max">
        <route edges="-v21 h12 h11"/>
    </vehicle>
    <vehicle id="207" depart="1656.00" departLane="best" departSpeed="max">
        <route edges="-h14 E3 v33 -h33"/>
    </vehicle>
    <vehicle id="208" depart="1664.00" departLane="best" departSpeed="max">
        <route edges="-h21 -h22 -h23 h24"/>
    </vehicle>
    <vehicle id="209" depart="1672.00" departLane="best" departSpeed="max">
        <route edges="-v34 -h33 -h32 -v14"/>
    </vehicle>
    <vehicle id="210" depart="1680.00" departLane="best" departSpeed="max">
        <route edges="-h31 h32 h33 h34"/>
    </vehicle>
    <vehicle id="211" depart="1688.00" departLane="best" departSpeed="max">
        <route edges="-h14 h13 h12 v11"/>
    </vehicle>
    <vehicle id="212" depart="1696.00" departLane="best" departSpeed="max">
        <route edges="-h34 -v33 h23 h22 v12 h11"/>
    </vehicle>
    <vehicle id="213" depart="1704.00" departLane="best" departSpeed="max">