<?xml version="1.0" encoding="UTF-8"?>

<!-- generated on 2023-02-13 23:15:34 by Eclipse SUMO netedit Version 1.15.0
-->

<routes xmlns:xsi="http://www.w3.org/2001/XMLSchema-instance" xsi:noNamespaceSchemaLocation="http://sumo.dlr.de/xsd/routes_file.xsd">
    <!-- Vehicles, persons and containers (sorted by depart) -->
    <flow id="f_0" begin="0.00" from="v11" to="-h11" end="25000.00" vehsPerHour="25.00"/>
    <flow id="f_1" begin="0.00" departLane="best" departSpeed="max" from="v11" to="v15" end="25000.00" vehsPerHour="25.00"/>
    <flow id="f_10" begin="0.00" departLane="best" departSpeed="max" from="v41" to="-h11" end="2500.00" vehsPerHour="25.00"/>
    <flow id="f_11" begin="0.00" departLane="best" departSpeed="max" from="v41" to="v45" end="2500.00" vehsPerHour="25.00"/>
    <flow id="f_12" begin="0.00" departLane="best" departSpeed="max" from="h11" to="-v11" end="2500.00" vehsPerHour="25.00"/>
    <flow id="f_13" begin="0.00" departLane="best" departSpeed="max" from="h11" to="h15" end="2500.00" vehsPerHour="25.00"/>
    <flow id="f_14" begin="0.00" departLane="best" departSpeed="max" from="h11" to="v15" end="2500.00" vehsPerHour="25.00"/>
    <flow id="f_15" begin="0.00" departLane="best" departSpeed="max" from="h21" to="-v11" end="2500.00" vehsPerHour="25.00"/>
    <flow id="f_16" begin="0.00" departLane="best" departSpeed="max" from="h21" to="h25" end="2500.00" vehsPerHour="25.00"/>
    <flow id="f_17" begin="0.00" departLane="best" departSpeed="max" from="h21" to="v15" end="2500.00" vehsPerHour="25.00"/>
    <flow id="f_18" begin="0.00" departLane="best" departSpeed="max" from="h31" to="-v11" end="2500.00" vehsPerHour="25.00"/>
    <flow id="f_19" begin="0.00" departLane="best" departSpeed="max" from="h31" to="h35" end="2500.00" vehsPerHour="25.00"/>
    <flow id="f_2" begin="0.00" departLane="best" departSpeed="max" from="v11" to="h15" end="2500.00" vehsPerHour="25.00"/>
    <flow id="f_20" begin="0.00" departLane="best" departSpeed="max" from="h31" to="v15" end="2500.00" vehsPerHour="25.00"/>
    <flow id="f_21" begin="0.00" departLane="best" departSpeed="max" from="h41" to="v15" end="2500.00" vehsPerHour="25.00"/>
    <flow id="f_22" begin="0.00" departLane="best" departSpeed="max" from="h41" to="-v11" end="2500.00" vehsPerHour="25.00"/>
    <flow id="f_23" begin="0.00" departLane="best" departSpeed="max" from="h41" to="h45" end="2500.00" vehsPerHour="25.00"/>
    <flow id="f_24" begin="0.00" departLane="best" departSpeed="max" from="-v15" to="-h41" end="2500.00" vehsPerHour="25.00"/>
    <flow id="f_25" begin="0.00" departLane="best" departSpeed="max" from="-v15" to="-v11" end="2500.00" vehsPerHour="25.00"/>
    <flow id="f_26" begin="0.00" departLane="best" departSpeed="max" from="-v15" to="h45" end="2500.00" vehsPerHour="25.00"/>
    <flow id="f_27" begin="0.00" departLane="best" departSpeed="max" from="-v25" to="-v21" end="2500.00" vehsPerHour="25.00"/>
    <flow id="f_28" begin="0.00" departLane="best" departSpeed="max" from="-v25" to="h45" end="2500.00" vehsPerHour="25.00"/>
    <flow id="f_29" begin="0.00" departLane="best" departSpeed="max" from="-v25" to="-h41" end="2500.00" vehsPerHour="25.00"/>
    <flow id="f_3" begin="0.00" departLane="best" departSpeed="max" from="v21" to="h15" end="2500.00" vehsPerHour="25.00"/>
    <flow id="f_30" begin="0.00" departLane="best" departSpeed="max" from="-v35" to="h45" end="2500.00" vehsPerHour="25.00"/>
    <flow id="f_31" begin="0.00" departLane="best" departSpeed="max" from="-v35" to="-h41" end="2500.00" vehsPerHour="25.00"/>
    <flow id="f_32" begin="0.00" departLane="best" departSpeed="max" from="-v35" to="-v31" end="2500.00" vehsPerHour="25.00"/>
    <flow id="f_33" begin="0.00" departLane="best" departSpeed="max" from="-v45" to="h45" end="2500.00" vehsPerHour="25.00"/>
    <flow id="f_34" begin="0.00" departLane="best" departSpeed="max" from="-v45" to="-h41" end="2500.00" vehsPerHour="25.00"/>
    <flow id="f_35" begin="0.00" departLane="best" departSpeed="max" from="-v45" to="-v42" end="2500.00" vehsPerHour="25.00"/>
    <flow id="f_36" begin="0.00" departLane="best" departSpeed="max" from="-h45" to="v45" end="2500.00" vehsPerHour="25.00"/>
    <flow id="f_37" begin="0.00" departLane="best" departSpeed="max" from="-h45" to="-h41" end="2500.00" vehsPerHour="25.00"/>
    <flow id="f_38" begin="0.00" departLane="best" departSpeed="max" from="-h45" to="-v41" end="2500.00" vehsPerHour="25.00"/>
    <flow id="f_39" begin="0.00" departLane="best" departSpeed="max" from="-h35" to="-h31" end="2500.00" vehsPerHour="25.00"/>
    <flow id="f_4" begin="0.00" departLane="best" departSpeed="max" from="v21" to="v25" end="2500.00" vehsPerHour="25.00"/>
    <flow id="f_40" begin="0.00" departLane="best" departSpeed="max" from="-h35" to="v45" end="2500.00" vehsPerHour="25.00"/>
    <flow id="f_41" begin="0.00" departLane="best" departSpeed="max" from="-h35" to="-v41" end="2500.00" vehsPerHour="25.00"/>
    <flow id="f_42" begin="0.00" departLane="best" departSpeed="max" from="-h25" to="v45" end="2500.00" vehsPerHour="25.00"/>
    <flow id="f_43" begin="0.00" departLane="best" departSpeed="max" from="-h25" to="-h21" end="2500.00" vehsPerHour="25.00"/>
    <flow id="f_44" begin="0.00" departLane="best" departSpeed="max" from="-h25" to="-v41" end="2500.00" vehsPerHour="25.00"/>
    <flow id="f_45" begin="0.00" departLane="best" departSpeed="max" from="-h15" to="-v41" end="2500.00" vehsPerHour="25.00"/>
    <flow id="f_46" begin="0.00" departLane="best" departSpeed="max" from="-h15" to="-h11" end="2500.00" vehsPerHour="25.00"/>
    <flow id="f_47" begin="0.00" departLane="best" departSpeed="max" from="-h15" to="v45" end="2500.00" vehsPerHour="25.00"/>
    <flow id="f_5" begin="0.00" departLane="best" departSpeed="max" from="v21" to="h15" end="2500.00" vehsPerHour="25.00"/>
    <flow id="f_6" begin="0.00" departLane="best" departSpeed="max" from="v31" to="-h11" end="2500.00" vehsPerHour="25.00"/>
    <flow id="f_7" begin="0.00" departLane="best" departSpeed="max" from="v31" to="v35" end="2500.00" vehsPerHour="25.00"/>
    <flow id="f_8" begin="0.00" departLane="best" departSpeed="max" from="v31" to="h15" end="2500.00" vehsPerHour="25.00"/>
    <flow id="f_9" begin="0.00" departLane="best" departSpeed="max" from="v41" to="h15" end="2500.00" vehsPerHour="25.00"/>
    <flow id="f_133" begin="7501.00" departLane="best" departSpeed="max" from="v11" to="-h11" end="10000.00" vehsPerHour="100.00"/>
    <flow id="f_135" begin="7501.00" departLane="best" departSpeed="max" from="v11" to="v15" end="10000.00" vehsPerHour="100.00"/>
    <flow id="f_136" begin="7501.00" departLane="best" departSpeed="max" from="v11" to="h15" end="10000.00" vehsPerHour="100.00"/>
    <flow id="f_150" begin="7501.00" departLane="best" departSpeed="max" from="v11" to="-h11" end="10000.00" vehsPerHour="100.00"/>
    <flow id="f_151" begin="7501.00" departLane="best" departSpeed="max" from="v11" to="v15" end="10000.00" vehsPerHour="100.00"/>
    <flow id="f_48" begin="7501.00" departLane="best" departSpeed="max" from="v21" to="-h11" end="10000.00" vehsPerHour="100.00"/>
</routes>
