<?xml version="1.0" encoding="UTF-8"?>

<!-- generated on 2023-02-10 20:14:30 by Eclipse SUMO netedit Version 1.15.0
<configuration xmlns:xsi="http://www.w3.org/2001/XMLSchema-instance" xsi:noNamespaceSchemaLocation="http://sumo.dlr.de/xsd/netconvertConfiguration.xsd">

    <input>
        <sumo-net-file value="D:\programmi\sumo\esperimenti semafori\Reinforcement-learning-in-traffic-light\nets\4x4-Lucas\4x4b.net.xml"/>
    </input>

    <output>
        <output-file value="D:\programmi\sumo\esperimenti semafori\Reinforcement-learning-in-traffic-light\nets\4x4-Lucas\4x4b.net.xml"/>
    </output>

    <processing>
        <geometry.min-radius.fix.railways value="false"/>
        <geometry.max-grade.fix value="false"/>
        <offset.disable-normalization value="true"/>
        <lefthand value="0"/>
    </processing>

    <junctions>
        <no-turnarounds value="true"/>
        <junctions.corner-detail value="0"/>
        <junctions.limit-turn-speed value="-1.00"/>
        <rectangular-lane-cut value="0"/>
    </junctions>

    <pedestrian>
        <walkingareas value="0"/>
    </pedestrian>

</configuration>
-->

<net version="1.9" xmlns:xsi="http://www.w3.org/2001/XMLSchema-instance" xsi:noNamespaceSchemaLocation="http://sumo.dlr.de/xsd/net_file.xsd">

    <location netOffset="-1850.00,-2900.00" convBoundary="0.00,0.00,750.00,750.00" origBoundary="1850.00,2900.00,2600.00,3650.00" projParameter="!"/>

    <edge id=":0_0" function="internal">
        <lane id=":0_0_0" index="0" speed="13.90" length="9.03" shape="145.20,610.40 144.85,607.95 143.80,606.20 142.05,605.15 139.60,604.80"/>
    </edge>
    <edge id=":0_1" function="internal">
        <lane id=":0_1_0" index="0" speed="13.90" length="20.80" shape="145.20,610.40 145.20,589.60"/>
    </edge>
    <edge id=":0_2" function="internal">
        <lane id=":0_2_0" index="0" speed="13.90" length="19.35" shape="148.40,610.40 149.15,605.15 151.40,601.40 155.15,599.15 160.40,598.40"/>
    </edge>
    <edge id=":0_3" function="internal">
        <lane id=":0_3_0" index="0" speed="13.90" length="9.03" shape="160.40,604.80 157.95,605.15 156.20,606.20 155.15,607.95 154.80,610.40"/>
    </edge>
    <edge id=":0_4" function="internal">
        <lane id=":0_4_0" index="0" speed="13.90" length="20.80" shape="160.40,604.80 139.60,604.80"/>
    </edge>
    <edge id=":0_5" function="internal">
        <lane id=":0_5_0" index="0" speed="13.90" length="19.35" shape="160.40,601.60 155.15,600.85 151.40,598.60 149.15,594.85 148.40,589.60"/>
    </edge>
    <edge id=":0_6" function="internal">
        <lane id=":0_6_0" index="0" speed="13.90" length="9.03" shape="154.80,589.60 155.15,592.05 156.20,593.80 157.95,594.85 160.40,595.20"/>
    </edge>
    <edge id=":0_7" function="internal">
        <lane id=":0_7_0" index="0" speed="13.90" length="20.80" shape="154.80,589.60 154.80,610.40"/>
    </edge>
    <edge id=":0_8" function="internal">
        <lane id=":0_8_0" index="0" speed="13.90" length="19.35" shape="151.60,589.60 150.85,594.85 148.60,598.60 144.85,600.85 139.60,601.60"/>
    </edge>
    <edge id=":0_9" function="internal">
        <lane id=":0_9_0" index="0" speed="13.90" length="9.03" shape="139.60,595.20 142.05,594.85 143.80,593.80 144.85,592.05 145.20,589.60"/>
    </edge>
    <edge id=":0_10" function="internal">
        <lane id=":0_10_0" index="0" speed="13.90" length="20.80" shape="139.60,595.20 160.40,595.20"/>
    </edge>
    <edge id=":0_11" function="internal">
        <lane id=":0_11_0" index="0" speed="13.90" length="19.35" shape="139.60,598.40 144.85,599.15 148.60,601.40 150.85,605.15 151.60,610.40"/>
    </edge>
    <edge id=":1_0" function="internal">
        <lane id=":1_0_0" index="0" speed="13.90" length="9.03" shape="295.20,610.40 294.85,607.95 293.80,606.20 292.05,605.15 289.60,604.80"/>
    </edge>
    <edge id=":1_1" function="internal">
        <lane id=":1_1_0" index="0" speed="13.90" length="20.80" shape="295.20,610.40 295.20,589.60"/>
    </edge>
    <edge id=":1_2" function="internal">
        <lane id=":1_2_0" index="0" speed="13.90" length="19.35" shape="298.40,610.40 299.15,605.15 301.40,601.40 305.15,599.15 310.40,598.40"/>
    </edge>
    <edge id=":1_3" function="internal">
        <lane id=":1_3_0" index="0" speed="13.90" length="9.03" shape="310.40,604.80 307.95,605.15 306.20,606.20 305.15,607.95 304.80,610.40"/>
    </edge>
    <edge id=":1_4" function="internal">
        <lane id=":1_4_0" index="0" speed="13.90" length="20.80" shape="310.40,604.80 289.60,604.80"/>
    </edge>
    <edge id=":1_5" function="internal">
        <lane id=":1_5_0" index="0" speed="13.90" length="19.35" shape="310.40,601.60 305.15,600.85 301.40,598.60 299.15,594.85 298.40,589.60"/>
    </edge>
    <edge id=":1_6" function="internal">
        <lane id=":1_6_0" index="0" speed="13.90" length="9.03" shape="304.80,589.60 305.15,592.05 306.20,593.80 307.95,594.85 310.40,595.20"/>
    </edge>
    <edge id=":1_7" function="internal">
        <lane id=":1_7_0" index="0" speed="13.90" length="20.80" shape="304.80,589.60 304.80,610.40"/>
    </edge>
    <edge id=":1_8" function="internal">
        <lane id=":1_8_0" index="0" speed="13.90" length="19.35" shape="301.60,589.60 300.85,594.85 298.60,598.60 294.85,600.85 289.60,601.60"/>
    </edge>
    <edge id=":1_9" function="internal">
        <lane id=":1_9_0" index="0" speed="13.90" length="9.03" shape="289.60,595.20 292.05,594.85 293.80,593.80 294.85,592.05 295.20,589.60"/>
    </edge>
    <edge id=":1_10" function="internal">
        <lane id=":1_10_0" index="0" speed="13.90" length="20.80" shape="289.60,595.20 310.40,595.20"/>
    </edge>
    <edge id=":1_11" function="internal">
        <lane id=":1_11_0" index="0" speed="13.90" length="19.35" shape="289.60,598.40 294.85,599.15 298.60,601.40 300.85,605.15 301.60,610.40"/>
    </edge>
    <edge id=":10_0" function="internal">
        <lane id=":10_0_0" index="0" speed="13.90" length="9.03" shape="445.20,310.40 444.85,307.95 443.80,306.20 442.05,305.15 439.60,304.80"/>
    </edge>
    <edge id=":10_1" function="internal">
        <lane id=":10_1_0" index="0" speed="13.90" length="20.80" shape="445.20,310.40 445.20,289.60"/>
    </edge>
    <edge id=":10_2" function="internal">
        <lane id=":10_2_0" index="0" speed="13.90" length="19.35" shape="448.40,310.40 449.15,305.15 451.40,301.40 455.15,299.15 460.40,298.40"/>
    </edge>
    <edge id=":10_3" function="internal">
        <lane id=":10_3_0" index="0" speed="13.90" length="9.03" shape="460.40,304.80 457.95,305.15 456.20,306.20 455.15,307.95 454.80,310.40"/>
    </edge>
    <edge id=":10_4" function="internal">
        <lane id=":10_4_0" index="0" speed="13.90" length="20.80" shape="460.40,304.80 439.60,304.80"/>
    </edge>
    <edge id=":10_5" function="internal">
        <lane id=":10_5_0" index="0" speed="13.90" length="19.35" shape="460.40,301.60 455.15,300.85 451.40,298.60 449.15,294.85 448.40,289.60"/>
    </edge>
    <edge id=":10_6" function="internal">
        <lane id=":10_6_0" index="0" speed="13.90" length="9.03" shape="454.80,289.60 455.15,292.05 456.20,293.80 457.95,294.85 460.40,295.20"/>
    </edge>
    <edge id=":10_7" function="internal">
        <lane id=":10_7_0" index="0" speed="13.90" length="20.80" shape="454.80,289.60 454.80,310.40"/>
    </edge>
    <edge id=":10_8" function="internal">
        <lane id=":10_8_0" index="0" speed="13.90" length="19.35" shape="451.60,289.60 450.85,294.85 448.60,298.60 444.85,300.85 439.60,301.60"/>
    </edge>
    <edge id=":10_9" function="internal">
        <lane id=":10_9_0" index="0" speed="13.90" length="9.03" shape="439.60,295.20 442.05,294.85 443.80,293.80 444.85,292.05 445.20,289.60"/>
    </edge>
    <edge id=":10_10" function="internal">
        <lane id=":10_10_0" index="0" speed="13.90" length="20.80" shape="439.60,295.20 460.40,295.20"/>
    </edge>
    <edge id=":10_11" function="internal">
        <lane id=":10_11_0" index="0" speed="13.90" length="19.35" shape="439.60,298.40 444.85,299.15 448.60,301.40 450.85,305.15 451.60,310.40"/>
    </edge>
    <edge id=":11_0" function="internal">
        <lane id=":11_0_0" index="0" speed="13.90" length="9.03" shape="595.20,310.40 594.85,307.95 593.80,306.20 592.05,305.15 589.60,304.80"/>
    </edge>
    <edge id=":11_1" function="internal">
        <lane id=":11_1_0" index="0" speed="13.90" length="20.80" shape="595.20,310.40 595.20,289.60"/>
    </edge>
    <edge id=":11_2" function="internal">
        <lane id=":11_2_0" index="0" speed="13.90" length="19.35" shape="598.40,310.40 599.15,305.15 601.40,301.40 605.15,299.15 610.40,298.40"/>
    </edge>
    <edge id=":11_3" function="internal">
        <lane id=":11_3_0" index="0" speed="13.90" length="9.03" shape="610.40,304.80 607.95,305.15 606.20,306.20 605.15,307.95 604.80,310.40"/>
    </edge>
    <edge id=":11_4" function="internal">
        <lane id=":11_4_0" index="0" speed="13.90" length="20.80" shape="610.40,304.80 589.60,304.80"/>
    </edge>
    <edge id=":11_5" function="internal">
        <lane id=":11_5_0" index="0" speed="13.90" length="19.35" shape="610.40,301.60 605.15,300.85 601.40,298.60 599.15,294.85 598.40,289.60"/>
    </edge>
    <edge id=":11_6" function="internal">
        <lane id=":11_6_0" index="0" speed="13.90" length="9.03" shape="604.80,289.60 605.15,292.05 606.20,293.80 607.95,294.85 610.40,295.20"/>
    </edge>
    <edge id=":11_7" function="internal">
        <lane id=":11_7_0" index="0" speed="13.90" length="20.80" shape="604.80,289.60 604.80,310.40"/>
    </edge>
    <edge id=":11_8" function="internal">
        <lane id=":11_8_0" index="0" speed="13.90" length="19.35" shape="601.60,289.60 600.85,294.85 598.60,298.60 594.85,300.85 589.60,301.60"/>
    </edge>
    <edge id=":11_9" function="internal">
        <lane id=":11_9_0" index="0" speed="13.90" length="9.03" shape="589.60,295.20 592.05,294.85 593.80,293.80 594.85,292.05 595.20,289.60"/>
    </edge>
    <edge id=":11_10" function="internal">
        <lane id=":11_10_0" index="0" speed="13.90" length="20.80" shape="589.60,295.20 610.40,295.20"/>
    </edge>
    <edge id=":11_11" function="internal">
        <lane id=":11_11_0" index="0" speed="13.90" length="19.35" shape="589.60,298.40 594.85,299.15 598.60,301.40 600.85,305.15 601.60,310.40"/>
    </edge>
    <edge id=":12_0" function="internal">
        <lane id=":12_0_0" index="0" speed="13.90" length="9.03" shape="145.20,160.40 144.85,157.95 143.80,156.20 142.05,155.15 139.60,154.80"/>
    </edge>
    <edge id=":12_1" function="internal">
        <lane id=":12_1_0" index="0" speed="13.90" length="20.80" shape="145.20,160.40 145.20,139.60"/>
    </edge>
    <edge id=":12_2" function="internal">
        <lane id=":12_2_0" index="0" speed="13.90" length="19.35" shape="148.40,160.40 149.15,155.15 151.40,151.40 155.15,149.15 160.40,148.40"/>
    </edge>
    <edge id=":12_3" function="internal">
        <lane id=":12_3_0" index="0" speed="13.90" length="9.03" shape="160.40,154.80 157.95,155.15 156.20,156.20 155.15,157.95 154.80,160.40"/>
    </edge>
    <edge id=":12_4" function="internal">
        <lane id=":12_4_0" index="0" speed="13.90" length="20.80" shape="160.40,154.80 139.60,154.80"/>
    </edge>
    <edge id=":12_5" function="internal">
        <lane id=":12_5_0" index="0" speed="13.90" length="19.35" shape="160.40,151.60 155.15,150.85 151.40,148.60 149.15,144.85 148.40,139.60"/>
    </edge>
    <edge id=":12_6" function="internal">
        <lane id=":12_6_0" index="0" speed="13.90" length="9.03" shape="154.80,139.60 155.15,142.05 156.20,143.80 157.95,144.85 160.40,145.20"/>
    </edge>
    <edge id=":12_7" function="internal">
        <lane id=":12_7_0" index="0" speed="13.90" length="20.80" shape="154.80,139.60 154.80,160.40"/>
    </edge>
    <edge id=":12_8" function="internal">
        <lane id=":12_8_0" index="0" speed="13.90" length="19.35" shape="151.60,139.60 150.85,144.85 148.60,148.60 144.85,150.85 139.60,151.60"/>
    </edge>
    <edge id=":12_9" function="internal">
        <lane id=":12_9_0" index="0" speed="13.90" length="9.03" shape="139.60,145.20 142.05,144.85 143.80,143.80 144.85,142.05 145.20,139.60"/>
    </edge>
    <edge id=":12_10" function="internal">
        <lane id=":12_10_0" index="0" speed="13.90" length="20.80" shape="139.60,145.20 160.40,145.20"/>
    </edge>
    <edge id=":12_11" function="internal">
        <lane id=":12_11_0" index="0" speed="13.90" length="19.35" shape="139.60,148.40 144.85,149.15 148.60,151.40 150.85,155.15 151.60,160.40"/>
    </edge>
    <edge id=":13_0" function="internal">
        <lane id=":13_0_0" index="0" speed="13.90" length="9.03" shape="295.20,160.40 294.85,157.95 293.80,156.20 292.05,155.15 289.60,154.80"/>
    </edge>
    <edge id=":13_1" function="internal">
        <lane id=":13_1_0" index="0" speed="13.90" length="20.80" shape="295.20,160.40 295.20,139.60"/>
    </edge>
    <edge id=":13_2" function="internal">
        <lane id=":13_2_0" index="0" speed="13.90" length="19.35" shape="298.40,160.40 299.15,155.15 301.40,151.40 305.15,149.15 310.40,148.40"/>
    </edge>
    <edge id=":13_3" function="internal">
        <lane id=":13_3_0" index="0" speed="13.90" length="9.03" shape="310.40,154.80 307.95,155.15 306.20,156.20 305.15,157.95 304.80,160.40"/>
    </edge>
    <edge id=":13_4" function="internal">
        <lane id=":13_4_0" index="0" speed="13.90" length="20.80" shape="310.40,154.80 289.60,154.80"/>
    </edge>
    <edge id=":13_5" function="internal">
        <lane id=":13_5_0" index="0" speed="13.90" length="19.35" shape="310.40,151.60 305.15,150.85 301.40,148.60 299.15,144.85 298.40,139.60"/>
    </edge>
    <edge id=":13_6" function="internal">
        <lane id=":13_6_0" index="0" speed="13.90" length="9.03" shape="304.80,139.60 305.15,142.05 306.20,143.80 307.95,144.85 310.40,145.20"/>
    </edge>
    <edge id=":13_7" function="internal">
        <lane id=":13_7_0" index="0" speed="13.90" length="20.80" shape="304.80,139.60 304.80,160.40"/>
    </edge>
    <edge id=":13_8" function="internal">
        <lane id=":13_8_0" index="0" speed="13.90" length="19.35" shape="301.60,139.60 300.85,144.85 298.60,148.60 294.85,150.85 289.60,151.60"/>
    </edge>
    <edge id=":13_9" function="internal">
        <lane id=":13_9_0" index="0" speed="13.90" length="9.03" shape="289.60,145.20 292.05,144.85 293.80,143.80 294.85,142.05 295.20,139.60"/>
    </edge>
    <edge id=":13_10" function="internal">
        <lane id=":13_10_0" index="0" speed="13.90" length="20.80" shape="289.60,145.20 310.40,145.20"/>
    </edge>
    <edge id=":13_11" function="internal">
        <lane id=":13_11_0" index="0" speed="13.90" length="19.35" shape="289.60,148.40 294.85,149.15 298.60,151.40 300.85,155.15 301.60,160.40"/>
    </edge>
    <edge id=":14_0" function="internal">
        <lane id=":14_0_0" index="0" speed="13.90" length="9.03" shape="445.20,160.40 444.85,157.95 443.80,156.20 442.05,155.15 439.60,154.80"/>
    </edge>
    <edge id=":14_1" function="internal">
        <lane id=":14_1_0" index="0" speed="13.90" length="20.80" shape="445.20,160.40 445.20,139.60"/>
    </edge>
    <edge id=":14_2" function="internal">
        <lane id=":14_2_0" index="0" speed="13.90" length="19.35" shape="448.40,160.40 449.15,155.15 451.40,151.40 455.15,149.15 460.40,148.40"/>
    </edge>
    <edge id=":14_3" function="internal">
        <lane id=":14_3_0" index="0" speed="13.90" length="9.03" shape="460.40,154.80 457.95,155.15 456.20,156.20 455.15,157.95 454.80,160.40"/>
    </edge>
    <edge id=":14_4" function="internal">
        <lane id=":14_4_0" index="0" speed="13.90" length="20.80" shape="460.40,154.80 439.60,154.80"/>
    </edge>
    <edge id=":14_5" function="internal">
        <lane id=":14_5_0" index="0" speed="13.90" length="19.35" shape="460.40,151.60 455.15,150.85 451.40,148.60 449.15,144.85 448.40,139.60"/>
    </edge>
    <edge id=":14_6" function="internal">
        <lane id=":14_6_0" index="0" speed="13.90" length="9.03" shape="454.80,139.60 455.15,142.05 456.20,143.80 457.95,144.85 460.40,145.20"/>
    </edge>
    <edge id=":14_7" function="internal">
        <lane id=":14_7_0" index="0" speed="13.90" length="20.80" shape="454.80,139.60 454.80,160.40"/>
    </edge>
    <edge id=":14_8" function="internal">
        <lane id=":14_8_0" index="0" speed="13.90" length="19.35" shape="451.60,139.60 450.85,144.85 448.60,148.60 444.85,150.85 439.60,151.60"/>
    </edge>
    <edge id=":14_9" function="internal">
        <lane id=":14_9_0" index="0" speed="13.90" length="9.03" shape="439.60,145.20 442.05,144.85 443.80,143.80 444.85,142.05 445.20,139.60"/>
    </edge>
    <edge id=":14_10" function="internal">
        <lane id=":14_10_0" index="0" speed="13.90" length="20.80" shape="439.60,145.20 460.40,145.20"/>
    </edge>
    <edge id=":14_11" function="internal">
        <lane id=":14_11_0" index="0" speed="13.90" length="19.35" shape="439.60,148.40 444.85,149.15 448.60,151.40 450.85,155.15 451.60,160.40"/>
    </edge>
    <edge id=":15_0" function="internal">
        <lane id=":15_0_0" index="0" speed="13.90" length="9.03" shape="595.20,160.40 594.85,157.95 593.80,156.20 592.05,155.15 589.60,154.80"/>
    </edge>
    <edge id=":15_1" function="internal">
        <lane id=":15_1_0" index="0" speed="13.90" length="20.80" shape="595.20,160.40 595.20,139.60"/>
    </edge>
    <edge id=":15_2" function="internal">
        <lane id=":15_2_0" index="0" speed="13.90" length="19.35" shape="598.40,160.40 599.15,155.15 601.40,151.40 605.15,149.15 610.40,148.40"/>
    </edge>
    <edge id=":15_3" function="internal">
        <lane id=":15_3_0" index="0" speed="13.90" length="9.03" shape="610.40,154.80 607.95,155.15 606.20,156.20 605.15,157.95 604.80,160.40"/>
    </edge>
    <edge id=":15_4" function="internal">
        <lane id=":15_4_0" index="0" speed="13.90" length="20.80" shape="610.40,154.80 589.60,154.80"/>
    </edge>
    <edge id=":15_5" function="internal">
        <lane id=":15_5_0" index="0" speed="13.90" length="19.35" shape="610.40,151.60 605.15,150.85 601.40,148.60 599.15,144.85 598.40,139.60"/>
    </edge>
    <edge id=":15_6" function="internal">
        <lane id=":15_6_0" index="0" speed="13.90" length="9.03" shape="604.80,139.60 605.15,142.05 606.20,143.80 607.95,144.85 610.40,145.20"/>
    </edge>
    <edge id=":15_7" function="internal">
        <lane id=":15_7_0" index="0" speed="13.90" length="20.80" shape="604.80,139.60 604.80,160.40"/>
    </edge>
    <edge id=":15_8" function="internal">
        <lane id=":15_8_0" index="0" speed="13.90" length="19.35" shape="601.60,139.60 600.85,144.85 598.60,148.60 594.85,150.85 589.60,151.60"/>
    </edge>
    <edge id=":15_9" function="internal">
        <lane id=":15_9_0" index="0" speed="13.90" length="9.03" shape="589.60,145.20 592.05,144.85 593.80,143.80 594.85,142.05 595.20,139.60"/>
    </edge>
    <edge id=":15_10" function="internal">
        <lane id=":15_10_0" index="0" speed="13.90" length="20.80" shape="589.60,145.20 610.40,145.20"/>
    </edge>
    <edge id=":15_11" function="internal">
        <lane id=":15_11_0" index="0" speed="13.90" length="19.35" shape="589.60,148.40 594.85,149.15 598.60,151.40 600.85,155.15 601.60,160.40"/>
    </edge>
    <edge id=":2_0" function="internal">
        <lane id=":2_0_0" index="0" speed="13.90" length="9.03" shape="445.20,610.40 444.85,607.95 443.80,606.20 442.05,605.15 439.60,604.80"/>
    </edge>
    <edge id=":2_1" function="internal">
        <lane id=":2_1_0" index="0" speed="13.90" length="20.80" shape="445.20,610.40 445.20,589.60"/>
    </edge>
    <edge id=":2_2" function="internal">
        <lane id=":2_2_0" index="0" speed="13.90" length="19.35" shape="448.40,610.40 449.15,605.15 451.40,601.40 455.15,599.15 460.40,598.40"/>
    </edge>
    <edge id=":2_3" function="internal">
        <lane id=":2_3_0" index="0" speed="13.90" length="9.03" shape="460.40,604.80 457.95,605.15 456.20,606.20 455.15,607.95 454.80,610.40"/>
    </edge>
    <edge id=":2_4" function="internal">
        <lane id=":2_4_0" index="0" speed="13.90" length="20.80" shape="460.40,604.80 439.60,604.80"/>
    </edge>
    <edge id=":2_5" function="internal">
        <lane id=":2_5_0" index="0" speed="13.90" length="19.35" shape="460.40,601.60 455.15,600.85 451.40,598.60 449.15,594.85 448.40,589.60"/>
    </edge>
    <edge id=":2_6" function="internal">
        <lane id=":2_6_0" index="0" speed="13.90" length="9.03" shape="454.80,589.60 455.15,592.05 456.20,593.80 457.95,594.85 460.40,595.20"/>
    </edge>
    <edge id=":2_7" function="internal">
        <lane id=":2_7_0" index="0" speed="13.90" length="20.80" shape="454.80,589.60 454.80,610.40"/>
    </edge>
    <edge id=":2_8" function="internal">
        <lane id=":2_8_0" index="0" speed="13.90" length="19.35" shape="451.60,589.60 450.85,594.85 448.60,598.60 444.85,600.85 439.60,601.60"/>
    </edge>
    <edge id=":2_9" function="internal">
        <lane id=":2_9_0" index="0" speed="13.90" length="9.03" shape="439.60,595.20 442.05,594.85 443.80,593.80 444.85,592.05 445.20,589.60"/>
    </edge>
    <edge id=":2_10" function="internal">
        <lane id=":2_10_0" index="0" speed="13.90" length="20.80" shape="439.60,595.20 460.40,595.20"/>
    </edge>
    <edge id=":2_11" function="internal">
        <lane id=":2_11_0" index="0" speed="13.90" length="19.35" shape="439.60,598.40 444.85,599.15 448.60,601.40 450.85,605.15 451.60,610.40"/>
    </edge>
    <edge id=":3_0" function="internal">
        <lane id=":3_0_0" index="0" speed="13.90" length="9.03" shape="595.20,610.40 594.85,607.95 593.80,606.20 592.05,605.15 589.60,604.80"/>
    </edge>
    <edge id=":3_1" function="internal">
        <lane id=":3_1_0" index="0" speed="13.90" length="20.80" shape="595.20,610.40 595.20,589.60"/>
    </edge>
    <edge id=":3_2" function="internal">
        <lane id=":3_2_0" index="0" speed="13.90" length="19.35" shape="598.40,610.40 599.15,605.15 601.40,601.40 605.15,599.15 610.40,598.40"/>
    </edge>
    <edge id=":3_3" function="internal">
        <lane id=":3_3_0" index="0" speed="13.90" length="9.03" shape="610.40,604.80 607.95,605.15 606.20,606.20 605.15,607.95 604.80,610.40"/>
    </edge>
    <edge id=":3_4" function="internal">
        <lane id=":3_4_0" index="0" speed="13.90" length="20.80" shape="610.40,604.80 589.60,604.80"/>
    </edge>
    <edge id=":3_5" function="internal">
        <lane id=":3_5_0" index="0" speed="13.90" length="19.35" shape="610.40,601.60 605.15,600.85 601.40,598.60 599.15,594.85 598.40,589.60"/>
    </edge>
    <edge id=":3_6" function="internal">
        <lane id=":3_6_0" index="0" speed="13.90" length="9.03" shape="604.80,589.60 605.15,592.05 606.20,593.80 607.95,594.85 610.40,595.20"/>
    </edge>
    <edge id=":3_7" function="internal">
        <lane id=":3_7_0" index="0" speed="13.90" length="20.80" shape="604.80,589.60 604.80,610.40"/>
    </edge>
    <edge id=":3_8" function="internal">
        <lane id=":3_8_0" index="0" speed="13.90" length="19.35" shape="601.60,589.60 600.85,594.85 598.60,598.60 594.85,600.85 589.60,601.60"/>
    </edge>
    <edge id=":3_9" function="internal">
        <lane id=":3_9_0" index="0" speed="13.90" length="9.03" shape="589.60,595.20 592.05,594.85 593.80,593.80 594.85,592.05 595.20,589.60"/>
    </edge>
    <edge id=":3_10" function="internal">
        <lane id=":3_10_0" index="0" speed="13.90" length="20.80" shape="589.60,595.20 610.40,595.20"/>
    </edge>
    <edge id=":3_11" function="internal">
        <lane id=":3_11_0" index="0" speed="13.90" length="19.35" shape="589.60,598.40 594.85,599.15 598.60,601.40 600.85,605.15 601.60,610.40"/>
    </edge>
    <edge id=":4_0" function="internal">
        <lane id=":4_0_0" index="0" speed="13.90" length="9.03" shape="145.20,460.40 144.85,457.95 143.80,456.20 142.05,455.15 139.60,454.80"/>
    </edge>
    <edge id=":4_1" function="internal">
        <lane id=":4_1_0" index="0" speed="13.90" length="20.80" shape="145.20,460.40 145.20,439.60"/>
    </edge>
    <edge id=":4_2" function="internal">
        <lane id=":4_2_0" index="0" speed="13.90" length="19.35" shape="148.40,460.40 149.15,455.15 151.40,451.40 155.15,449.15 160.40,448.40"/>
    </edge>
    <edge id=":4_3" function="internal">
        <lane id=":4_3_0" index="0" speed="13.90" length="9.03" shape="160.40,454.80 157.95,455.15 156.20,456.20 155.15,457.95 154.80,460.40"/>
    </edge>
    <edge id=":4_4" function="internal">
        <lane id=":4_4_0" index="0" speed="13.90" length="20.80" shape="160.40,454.80 139.60,454.80"/>
    </edge>
    <edge id=":4_5" function="internal">
        <lane id=":4_5_0" index="0" speed="13.90" length="19.35" shape="160.40,451.60 155.15,450.85 151.40,448.60 149.15,444.85 148.40,439.60"/>
    </edge>
    <edge id=":4_6" function="internal">
        <lane id=":4_6_0" index="0" speed="13.90" length="9.03" shape="154.80,439.60 155.15,442.05 156.20,443.80 157.95,444.85 160.40,445.20"/>
    </edge>
    <edge id=":4_7" function="internal">
        <lane id=":4_7_0" index="0" speed="13.90" length="20.80" shape="154.80,439.60 154.80,460.40"/>
    </edge>
    <edge id=":4_8" function="internal">
        <lane id=":4_8_0" index="0" speed="13.90" length="19.35" shape="151.60,439.60 150.85,444.85 148.60,448.60 144.85,450.85 139.60,451.60"/>
    </edge>
    <edge id=":4_9" function="internal">
        <lane id=":4_9_0" index="0" speed="13.90" length="9.03" shape="139.60,445.20 142.05,444.85 143.80,443.80 144.85,442.05 145.20,439.60"/>
    </edge>
    <edge id=":4_10" function="internal">
        <lane id=":4_10_0" index="0" speed="13.90" length="20.80" shape="139.60,445.20 160.40,445.20"/>
    </edge>
    <edge id=":4_11" function="internal">
        <lane id=":4_11_0" index="0" speed="13.90" length="19.35" shape="139.60,448.40 144.85,449.15 148.60,451.40 150.85,455.15 151.60,460.40"/>
    </edge>
    <edge id=":5_0" function="internal">
        <lane id=":5_0_0" index="0" speed="13.90" length="9.03" shape="295.20,460.40 294.85,457.95 293.80,456.20 292.05,455.15 289.60,454.80"/>
    </edge>
    <edge id=":5_1" function="internal">
        <lane id=":5_1_0" index="0" speed="13.90" length="20.80" shape="295.20,460.40 295.20,439.60"/>
    </edge>
    <edge id=":5_2" function="internal">
        <lane id=":5_2_0" index="0" speed="13.90" length="19.35" shape="298.40,460.40 299.15,455.15 301.40,451.40 305.15,449.15 310.40,448.40"/>
    </edge>
    <edge id=":5_3" function="internal">
        <lane id=":5_3_0" index="0" speed="13.90" length="9.03" shape="310.40,454.80 307.95,455.15 306.20,456.20 305.15,457.95 304.80,460.40"/>
    </edge>
    <edge id=":5_4" function="internal">
        <lane id=":5_4_0" index="0" speed="13.90" length="20.80" shape="310.40,454.80 289.60,454.80"/>
    </edge>
    <edge id=":5_5" function="internal">
        <lane id=":5_5_0" index="0" speed="13.90" length="19.35" shape="310.40,451.60 305.15,450.85 301.40,448.60 299.15,444.85 298.40,439.60"/>
    </edge>
    <edge id=":5_6" function="internal">
        <lane id=":5_6_0" index="0" speed="13.90" length="9.03" shape="304.80,439.60 305.15,442.05 306.20,443.80 307.95,444.85 310.40,445.20"/>
    </edge>
    <edge id=":5_7" function="internal">
        <lane id=":5_7_0" index="0" speed="13.90" length="20.80" shape="304.80,439.60 304.80,460.40"/>
    </edge>
    <edge id=":5_8" function="internal">
        <lane id=":5_8_0" index="0" speed="13.90" length="19.35" shape="301.60,439.60 300.85,444.85 298.60,448.60 294.85,450.85 289.60,451.60"/>
    </edge>
    <edge id=":5_9" function="internal">
        <lane id=":5_9_0" index="0" speed="13.90" length="9.03" shape="289.60,445.20 292.05,444.85 293.80,443.80 294.85,442.05 295.20,439.60"/>
    </edge>
    <edge id=":5_10" function="internal">
        <lane id=":5_10_0" index="0" speed="13.90" length="20.80" shape="289.60,445.20 310.40,445.20"/>
    </edge>
    <edge id=":5_11" function="internal">
        <lane id=":5_11_0" index="0" speed="13.90" length="19.35" shape="289.60,448.40 294.85,449.15 298.60,451.40 300.85,455.15 301.60,460.40"/>
    </edge>
    <edge id=":6_0" function="internal">
        <lane id=":6_0_0" index="0" speed="13.90" length="9.03" shape="445.20,460.40 444.85,457.95 443.80,456.20 442.05,455.15 439.60,454.80"/>
    </edge>
    <edge id=":6_1" function="internal">
        <lane id=":6_1_0" index="0" speed="13.90" length="20.80" shape="445.20,460.40 445.20,439.60"/>
    </edge>
    <edge id=":6_2" function="internal">
        <lane id=":6_2_0" index="0" speed="13.90" length="19.35" shape="448.40,460.40 449.15,455.15 451.40,451.40 455.15,449.15 460.40,448.40"/>
    </edge>
    <edge id=":6_3" function="internal">
        <lane id=":6_3_0" index="0" speed="13.90" length="9.03" shape="460.40,454.80 457.95,455.15 456.20,456.20 455.15,457.95 454.80,460.40"/>
    </edge>
    <edge id=":6_4" function="internal">
        <lane id=":6_4_0" index="0" speed="13.90" length="20.80" shape="460.40,454.80 439.60,454.80"/>
    </edge>
    <edge id=":6_5" function="internal">
        <lane id=":6_5_0" index="0" speed="13.90" length="19.35" shape="460.40,451.60 455.15,450.85 451.40,448.60 449.15,444.85 448.40,439.60"/>
    </edge>
    <edge id=":6_6" function="internal">
        <lane id=":6_6_0" index="0" speed="13.90" length="9.03" shape="454.80,439.60 455.15,442.05 456.20,443.80 457.95,444.85 460.40,445.20"/>
    </edge>
    <edge id=":6_7" function="internal">
        <lane id=":6_7_0" index="0" speed="13.90" length="20.80" shape="454.80,439.60 454.80,460.40"/>
    </edge>
    <edge id=":6_8" function="internal">
        <lane id=":6_8_0" index="0" speed="13.90" length="19.35" shape="451.60,439.60 450.85,444.85 448.60,448.60 444.85,450.85 439.60,451.60"/>
    </edge>
    <edge id=":6_9" function="internal">
        <lane id=":6_9_0" index="0" speed="13.90" length="9.03" shape="439.60,445.20 442.05,444.85 443.80,443.80 444.85,442.05 445.20,439.60"/>
    </edge>
    <edge id=":6_10" function="internal">