<?xml version="1.0" encoding="UTF-8"?>



<routes xmlns:xsi="http://www.w3.org/2001/XMLSchema-instance" xsi:noNamespaceSchemaLocation="http://sumo.dlr.de/xsd/routes_file.xsd">
    <!-- Vehicles, persons and containers (sorted by depart) -->
    <flow id="f_0" begin="0.00" from="v11" to="-h11" end="2500" departLane="best" departSpeed="max" vehsPerHour="25.00"/>
    <flow id="f_1" begin="0.00" departLane="best" departSpeed="max" from="v11" to="v15" end="25000.00" vehsPerHour="25.00"/>
    <flow id="f_10" begin="0.00" departLane="best" departSpeed="max" from="v41" to="-h11" end="2500.00" vehsPerHour="25.00"/>
    <flow id="f_11" begin="0.00" departLane="best" departSpeed="max" from="v41" to="v45" end="2500.00" vehsPerHour="25.00"/>
    <flow id="f_12" begin="0.00" departLane="best" departSpeed="max" from="h11" to="-v11" end="2500.00" vehsPerHour="25.00"/>
    <flow id="f_13" begin="0.00" departLane="best" departSpeed="max" from="h11" to="h15" end="2500.00" vehsPerHour="25.00"/>
    <flow id="f_14" begin="0.00" departLane="best" departSpeed="max" from="h11" to="v15" end="2500.00" vehsPerHour="25.00"/>
    <flow id="f_15" begin="0.00" departLane="best" departSpeed="max" from="h21" to="-v11" end="2500.00" vehsPerHour="25.00"/>
    <flow id="f_16" begin="0.00" departLane="best" departSpeed="max" from="h21" to="h25" end="2500.00" vehsPerHour="25.00"/>
    <flow id="f_17" begin="0.00" departLane="best" departSpeed="max" from="h21" to="v15" end="2500.00" vehsPerHour="25.00"/>
    <flow id="f_18" begin="0.00" departLane="best" departSpeed="max" from="h31" to="-v11" end="2500.00" vehsPerHour="25.00"/>
    <flow id="f_19" begin="0.00" departLane="best" departSpeed="max" from="h31" to="h35" end="2500.00" vehsPerHour="25.00"/>
    <flow id="f_2" begin="0.00" departLane="best" departSpeed="max" from="v11" to="h15" end="2500.00" vehsPerHour="25.00"/>
    <flow id="f_20" begin="0.00" departLane="best" departSpeed="max" from="h31" to="v15" end="2500.00" vehsPerHour="25.00"/>
    <flow id="f_21" begin="0.00" departLane="best" departSpeed="max" from="h41" to="v15" end="2500.00" vehsPerHour="25.00"/>
    <flow id="f_22" begin="0.00" departLane="best" departSpeed="max" from="h41" to="-v11" end="2500.00" vehsPerHour="25.00"/>
    <flow id="f_23" begin="0.00" departLane="best" departSpeed="max" from="h41" to="h45" end="2500.00" vehsPerHour="25.00"/>
    <flow id="f_24" begin="0.00" departLane="best" departSpeed="max" from="-v15" to="-h41" end="2500.00" vehsPerHour="25.00"/>
    <flow id="f_25" begin="0.00" departLane="best" departSpeed="max" from="-v15" to="-v11" end="2500.00" vehsPerHour="25.00"/>
    <flow id="f_26" begin="0.00" departLane="best" departSpeed="max" from="-v15" to="h45" end="2500.00" vehsPerHour="25.00"/>
    <flow id="f_27" begin="0.00" departLane="best" departSpeed="max" from="-v25" to="-v21" end="2500.00" vehsPerHour="25.00"/>
    <flow id="f_28" begin="0.00" departLane="best" departSpeed="max" from="-v25" to="h45" end="2500.00" vehsPerHour="25.00"/>
    <flow id="f_29" begin="0.00" departLane="best" departSpeed="max" from="-v25" to="-h41" end="2500.00" vehsPerHour="25.00"/>
    <flow id="f_3" begin="0.00" departLane="best" departSpeed="max" from="v21" to="h15" end="2500.00" vehsPerHour="25.00"/>
    <flow id="f_30" begin="0.00" departLane="best" departSpeed="max" from="-v35" to="h45" end="2500.00" vehsPerHour="25.00"/>
    <flow id="f_31" begin="0.00" departLane="best" departSpeed="max" from="-v35" to="-h41" end="2500.00" vehsPerHour="25.00"/>
    <flow id="f_32" begin="0.00" departLane="best" departSpeed="max" from="-v35" to="-v31" end="2500.00" vehsPerHour="25.00"/>
    <flow id="f_33" begin="0.00" departLane="best" departSpeed="max" from="-v45" to="h45" end="2500.00" vehsPerHour="25.00"/>
    <flow id="f_34" begin="0.00" departLane="best" departSpeed="max" from="-v45" to="-h41" end="2500.00" vehsPerHour="25.00"/>
    <flow id="f_35" begin="0.00" departLane="best" departSpeed="max" from="-v45" to="-v42" end="2500.00" vehsPerHour="25.00"/>
    <flow id="f_36" begin="0.00" departLane="best" departSpeed="max" from="-h45" to="v45" end="2500.00" vehsPerHour="25.00"/>
    <flow id="f_37" begin="0.00" departLane="best" departSpeed="max" from="-h45" to="-h41" end="2500.00" vehsPerHour="25.00"/>
    <flow id="f_38" begin="0.00" departLane="best" departSpeed="max" from="-h45" to="-v41" end="2500.00" vehsPerHour="25.00"/>
    <flow id="f_39" begin="0.00" departLane="best" departSpeed="max" from="-h35" to="-h31" end="2500.00" vehsPerHour="25.00"/>
    <flow id="f_4" begin="0.00" departLane="best" departSpeed="max" from="v21" to="v25" end="2500.00" vehsPerHour="25.00"/>
    <flow id="f_40" begin="0.00" departLane="best" departSpeed="max" from="-h35" to="v45" end="2500.00" vehsPerHour="25.00"/>
    <flow id="f_41" begin="0.00" departLane="best" departSpeed="max" from="-h35" to="-v41" end="2500.00" vehsPerHour="25.00"/>
    <flow id="f_42" begin="0.00" departLane="best" departSpeed="max" from="-h25" to="v45" end="2500.00" vehsPerHour="25.00"/>
    <flow id="f_43" begin="0.00" departLane="best" departSpeed="max" from="-h25" to="-h21" end="2500.00" vehsPerHour="25.00"/>
    <flow id="f_44" begin="0.00" departLane="best" departSpeed="max" from="-h25" to="-v41" end="2500.00" vehsPerHour="25.00"/>
    <flow id="f_45" begin="0.00" departLane="best" departSpeed="max" from="-h15" to="-v41" end="2500.00" vehsPerHour="25.00"/>
    <flow id="f_46" begin="0.00" departLane="best" departSpeed="max" from="-h15" to="-h11" end="2500.00" vehsPerHour="25.00"/>
    <flow id="f_47" begin="0.00" departLane="best" departSpeed="max" from="-h15" to="v45" end="2500.00" vehsPerHour="25.00"/>
    <flow id="f_5" begin="0.00" departLane="best" departSpeed="max" from="v21" to="h15" end="2500.00" vehsPerHour="25.00"/>
    <flow id="f_6" begin="0.00" departLane="best" departSpeed="max" from="v31" to="-h11" end="2500.00" vehsPerHour="25.00"/>
    <flow id="f_7" begin="0.00" departLane="best" departSpeed="max" from="v31" to="v35" end="2500.00" vehsPerHour="25.00"/>
    <flow id="f_8" begin="0.00" departLane="best" departSpeed="max" from="v31" to="h15" end="2500.00" vehsPerHour="25.00"/>
    <flow id="f_9" begin="0.00" departLane="best" departSpeed="max" from="v41" to="h15" end="2500.00" vehsPerHour="25.00"/>
    <!--seconda fase-->
        <flow id="f_48" begin="2501.00" departLane="best" departSpeed="max" from="v11" to="-h11" end="5000" vehsPerHour="50.00"/>
    <flow id="f_49" begin="2501.00" departLane="best" departSpeed="max" from="v11" to="v15" end="5000" vehsPerHour="50"/>
    <flow id="f_50" begin="2501.00" departLane="best" departSpeed="max" from="v41" to="-h11" end="5000" vehsPerHour="50"/>
    <flow id="f_51" begin="2501.00" departLane="best" departSpeed="max" from="v41" to="v45" end="5000" vehsPerHour="50"/>
    <flow id="f_52" begin="2501.00" departLane="best" departSpeed="max" from="h11" to="-v11" end="5000" vehsPerHour="50"/>
    <flow id="f_53" begin="2501.00" departLane="best" departSpeed="max" from="h11" to="h15" end="5000" vehsPerHour="50"/>
    <flow id="f_54" begin="2501.00" departLane="best" departSpeed="max" from="h11" to="v15" end="5000" vehsPerHour="50"/>
    <flow id="f_55" begin="2501.00" departLane="best" departSpeed="max" from="h21" to="-v11" end="5000" vehsPerHour="50"/>
    <flow id="f_56" begin="2501.00" departLane="best" departSpeed="max" from="h21" to="h25" end="5000" vehsPerHour="50"/>
    <flow id="f_57" begin="2501.00" departLane="best" departSpeed="max" from="h21" to="v15" end="5000" vehsPerHour="50"/>
    <flow id="f_58" begin="2501.00" departLane="best" departSpeed="max" from="h31" to="-v11" end="5000" vehsPerHour="50"/>
    <flow id="f_59" begin="2501.00" departLane="best" departSpeed="max" from="h31" to="h35" end="5000" vehsPerHour="50"/>
    <flow id="f_60" begin="2501.00" departLane="best" departSpeed="max" from="v11" to="h15" end="5000" vehsPerHour="50"/>
    <flow id="f_61" begin="2501.00" departLane="best" departSpeed="max" from="h31" to="v15" end="5000" vehsPerHour="50"/>
    <flow id="f_62" begin="2501.00" departLane="best" departSpeed="max" from="h41" to="v15" end="5000" vehsPerHour="50"/>
    <flow id="f_63" begin="2501.00" departLane="best" departSpeed="max" from="h41" to="-v11" end="5000" vehsPerHour="50"/>
    <flow id="f_64" begin="2501.00" departLane="best" departSpeed="max" from="h41" to="h45" end="5000" vehsPerHour="50"/>
    <flow id="f_65" begin="2501.00" departLane="best" departSpeed="max" from="-v15" to="-h41" end="5000" vehsPerHour="50"/>
    <flow id="f_66" begin="2501.00" departLane="best" departSpeed="max" from="-v15" to="-v11" end="5000" vehsPerHour="50"/>
    <flow id="f_67" begin="2501.00" departLane="best" departSpeed="max" from="-v15" to="h45" end="5000" vehsPerHour="50"/>
    <flow id="f_68" begin="2501.00" departLane="best" departSpeed="max" from="-v25" to="-v21" end="5000" vehsPerHour="50"/>
    <flow id="f_69" begin="2501.00" departLane="best" departSpeed="max" from="-v25" to="h45" end="5000" vehsPerHour="50"/>
    <flow id="f_70" begin="2501.00" departLane="best" departSpeed="max" from="-v25" to="-h41" end="5000" vehsPerHour="50"/>
    <flow id="f_71" begin="2501.00" departLane="best" departSpeed="max" from="v21" to="h15" end="5000" vehsPerHour="50"/>
    <flow id="f_72" begin="2501.00" departLane="best" departSpeed="max" from="-v35" to="h45" end="5000" vehsPerHour="50"/>
    <flow id="f_79" begin="2501.00" departLane="best" departSpeed="max" from="-v35" to="-h41" end="5000" vehsPerHour="50"/>
    <flow id="f_73" begin="2501.00" departLane="best" departSpeed="max" from="-v35" to="-v31" end="5000" vehsPerHour="50"/>
    <flow id="f_74" begin="2501.00" departLane="best" departSpeed="max" from="-v45" to="h45" end="5000" vehsPerHour="50"/>
    <flow id="f_75" begin="2501.00" departLane="best" departSpeed="max" from="-v45" to="-h41" end="5000" vehsPerHour="50"/>
    <flow id="f_76" begin="2501.00" departLane="best" departSpeed="max" from="-v45" to="-v42" end="5000" vehsPerHour="50"/>
    <flow id="f_77" begin="2501.00" departLane="best" departSpeed="max" from="-h45" to="v45" end="5000" vehsPerHour="50"/>
    <flow id="f_78" begin="2501.00" departLane="best" departSpeed="max" from="-h45" to="-h41" end="5000" vehsPerHour="50"/>
    <flow id="f_80" begin="2501.00" departLane="best" departSpeed="max" from="-h45" to="-v41" end="5000" vehsPerHour="50"/>
    <flow id="f_81" begin="2501.00" departLane="best" departSpeed="max" from="-h35" to="-h31" end="5000" vehsPerHour="50"/>
    <flow id="f_82" begin="2501.00" departLane="best" departSpeed="max" from="v21" to="v25" end="5000" vehsPerHour="50"/>
    <flow id="f_83" begin="2501.00" departLane="best" departSpeed="max" from="-h35" to="v45" end="5000" vehsPerHour="50"/>
    <flow id="f_84" begin="2501.00" departLane="best" departSpeed="max" from="-h35" to="-v41" end="5000" vehsPerHour="50"/>
    <flow id="f_85" begin="2501.00" departLane="best" departSpeed="max" from="-h25" to="v45" end="5000" vehsPerHour="50"/>
    <flow id="f_86" begin="2501.00" departLane="best" departSpeed="max" from="-h25" to="-h21" end="5000" vehsPerHour="50"/>
    <flow id="f_87" begin="2501.00" departLane="best" departSpeed="max" from="-h25" to="-v41" end="5000" vehsPerHour="50"/>
    <flow id="f_88" begin="2501.00" departLane="best" departSpeed="max" from="-h15" to="-v41" end="5000" vehsPerHour="50"/>
    <flow id="f_89" begin="2501.00" departLane="best" departSpeed="max" from="-h15" to="-h11" end="5000" vehsPerHour="50"/>
    <flow id="f_90" begin="2501.00" departLane="best" departSpeed="max" from="-h15" to="v45" end="5000" vehsPerHour="50"/>
    <flow id="f_91" begin="2501.00" departLane="best" departSpeed="max" from="v21" to="h15" end="5000" vehsPerHour="50"/>
    <flow id="f_92" begin="2501.00" departLane="best" departSpeed="max" from="v31" to="-h11" end="5000" vehsPerHour="50"/>
    <flow id="f_93" begin="2501.00" departLane="best" departSpeed="max" from="v31" to="v35" end="5000" vehsPerHour="50"/>
    <flow id="f_94" begin="2501.00" departLane="best" departSpeed="max" from="v31" to="h15" end="5000" vehsPerHour="50"/>
    <flow id="f_95" begin="2501.00" departLane="best" departSpeed="max" from="v41" to="h15" end="5000" vehsPerHour="50"/>

     <flow id="f_96" begin="5001" from="v11" to="-h11" end="7500" departLane="best" departSpeed="max" vehsPerHour="75.00"/>
    <flow id="f_97" begin="5001" departLane="best" departSpeed="max" from="v11" to="v15" end="7500" vehsPerHour="75"/>
    <flow id="f_98" begin="5001" departLane="best" departSpeed="max" from="v41" to="-h11" end="7500" vehsPerHour="75"/>
    <flow id="f_99" begin="5001" departLane="best" departSpeed="max" from="v41" to="v45" end="7500" vehsPerHour="75"/>
    <flow id="f_100" begin="5001" departLane="best" departSpeed="max" from="h11" to="-v11" end="7500" vehsPerHour="75"/>
    <flow id="f_101" begin="5001" departLane="best" departSpeed="max" from="h11" to="h15" end="7500" vehsPerHour="75"/>
    <flow id="f_102" begin="5001" departLane="best" departSpeed="max" from="h11" to="v15" end="7500" vehsPerHour="75"/>
    <flow id="f_103" begin="5001" departLane="best" departSpeed="max" from="h21" to="-v11" end="7500" vehsPerHour="75"/>
    <flow id="f_104" begin="5001" departLane="best" departSpeed="max" from="h21" to="h25" end="7500" vehsPerHour="75"/>
    <flow id="f_105" begin="5001" departLane="best" departSpeed="max" from="h21" to="v15" end="7500" vehsPerHour="75"/>
    <flow id="f_106" begin="5001" departLane="best" departSpeed="max" from="h31" to="-v11" end="7500" vehsPerHour="75"/>
    <flow id="f_107" begin="5001" departLane="best" departSpeed="max" from="h31" to="h35" end="7500" vehsPerHour="75"/>
    <flow id="f_108" begin="5001" departLane="best" departSpeed="max" from="v11" to="h15" end="7500" vehsPerHour="75"/>
    <flow id="f_109" begin="5001" departLane="best" departSpeed="max" from="h31" to="v15" end="7500" vehsPerHour="75"/>
    <flow id="f_110" begin="5001" departLane="best" departSpeed="max" from="h41" to="v15" end="7500" vehsPerHour="75"/>
    <flow id="f_111" begin="5001" departLane="best" departSpeed="max" from="h41" to="-v11" end="7500" vehsPerHour="75"/>
    <flow id="f_112" begin="5001" departLane="best" departSpeed="max" from="h41" to="h45" end="7500" vehsPerHour="75"/>
    <flow id="f_113" begin="5001" departLane="best" departSpeed="max" from="-v15" to="-h41" end="7500" vehsPerHour="75"/>
    <flow id="f_114" begin="5001" departLane="best" departSpeed="max" from="-v15" to="-v11" end="7500" vehsPerHour="75"/>
    <flow id="f_115" begin="5001" departLane="best" departSpeed="max" from="-v15" to="h45" end="7500" vehsPerHour="75"/>
    <flow id="f_116" begin="5001" departLane="best" departSpeed="max" from="-v25" to="-v21" end="7500" vehsPerHour="75"/>
    <flow id="f_117" begin="5001" departLane="best" departSpeed="max" from="-v25" to="h45" end="7500" vehsPerHour="75"/>
    <flow id="f_118" begin="5001" departLane="best" departSpeed="max" from="-v25" to="-h41" end="7500" vehsPerHour="75"/>
    <flow id="f_119" begin="5001" departLane="best" departSpeed="max" from="v21" to="h15" end="7500" vehsPerHour="75"/>
    <flow id="f_120" begin="5001" departLane="best" departSpeed="max" from="-v35" to="h45" end="7500" vehsPerHour="75"/>
    <flow id="f_121" begin="5001" departLane="best" departSpeed="max" from="-v35" to="-h41" end="7500" vehsPerHour="75"/>
    <flow id="f_123" begin="5001" departLane="best" departSpeed="max" from="-v35" to="-v31" end="7500" vehsPerHour="75"/>
    <flow id="f_122" begin="5001" departLane="best" departSpeed="max" from="-v45" to="h45" end="7500" vehsPerHour="75"/>
    <flow id="f_124" begin="5001" departLane="best" departSpeed="max" from="-v45" to="-h41" end="7500" vehsPerHour="75"/>
    <flow id="f_125" begin="5001" departLane="best" departSpeed="max" from="-v45" to="-v42" end="7500" vehsPerHour="75"/>
    <flow id="f_126" begin="5001" departLane="best" departSpeed="max" from="-h45" to="v45" end="7500" vehsPerHour="75"/>
    <flow id="f_127" begin="5001" departLane="best" departSpeed="max" from="-h45" to="-h41" end="7500" vehsPerHour="75"/>
    <flow id="f_128" begin="5001" departLane="best" departSpeed="max" from="-h45" to="-v41" end="7500" vehsPerHour="75"/>
    <flow id="f_129" begin="5001" departLane="best" departSpeed="max" from="-h35" to="-h31" end="7500" vehsPerHour="75"/>
    <flow id="f_130" begin="5001" departLane="best" departSpeed="max" from="v21" to="v25" end="7500" vehsPerHour="75"/>
    <flow id="f_131" begin="5001" departLane="best" departSpeed="max" from="-h35" to="v45" end="7500" vehsPerHour="75"/>
    <flow id="f_133" begin="5001" departLane="best" departSpeed="max" from="-h35" to="-v41" end="7500" vehsPerHour="75"/>
    <flow id="f_134" begin="5001" departLane="best" departSpeed="max" from="-h25" to="v45" end="7500" vehsPerHour="75"/>
    <flow id="f_135" begin="5001" departLane="best" departSpeed="max" from="-h25" to="-h21" end="7500" vehsPerHour="75"/>
    <flow id="f_136" begin="5001" departLane="best" departSpeed="max" from="-h25" to="-v41" end="7500" vehsPerHour="75"/>
    <flow id="f_138" begin="5001" departLane="best" departSpeed="max" from="-h15" to="-v41" end="7500" vehsPerHour="75"/>
    <flow id="f_137" begin="5001" departLane="best" departSpeed="max" from="-h15" to="-h11" end="7500" vehsPerHour="75"/>
    <flow id="f_139" begin="5001" departLane="best" departSpeed="max" from="-h15" to="v45" end="7500" vehsPerHour="75"/>
    <flow id="f_140" begin="5001" departLane="best" departSpeed="max" from="v21" to="h15" end="7500" vehsPerHour="75"/>
    <flow id="f_141" begin="5001" departLane="best" departSpeed="max" from="v31" to="-h11" end="7500" vehsPerHour="75"/>
    <flow id="f_142" begin="5001" departLane="best" departSpeed="max" from="v31" to="v35" end="7500" vehsPerHour="75"/>
    <flow id="f_143" begin="5001" departLane="best" departSpeed="max" from="v31" to="h15" end="7500" vehsPerHour="75"/>
    <flow id="f_132" begin="5001" departLane="best" departSpeed="max" from="v41" to="h15" end="7500" vehsPerHour="75"/>

     <flow id="f_145" begin="7501" from="v11" to="-h11" departLane="best" departSpeed="max" end="10000" vehsPerHour="100"/>
    <flow id="f_146" begin="7501" departLane="best" departSpeed="max" from="v11" to="v15" end="10000" vehsPerHour="50"/>
    <flow id="f_147" begin="7501" departLane="best" departSpeed="max" from="v41" to="-h11" end="10000" vehsPerHour="100"/>
    <flow id="f_148" begin="7501" departLane="best" departSpeed="max" from="v41" to="v45" end="10000" vehsPerHour="100"/>
    <flow id="f_149" begin="7501" departLane="best" departSpeed="max" from="h11" to="-v11" end="10000" vehsPerHour="100"/>
    <flow id="f_150" begin="7501" departLane="best" departSpeed="max" from="h11" to="h15" end="10000" vehsPerHour="100"/>
    <flow id="f_151" begin="7501" departLane="best" departSpeed="max" from="h11" to="v15" end="10000" vehsPerHour="100"/>
    <flow id="f_152" begin="7501" departLane="best" departSpeed="max" from="h21" to="-v11" end="10000" vehsPerHour="100"/>
    <flow id="f_153" begin="7501" departLane="best" departSpeed="max" from="h21" to="h25" end="10000" vehsPerHour="100"/>
    <flow id="f_154" begin="7501" departLane="best" departSpeed="max" from="h21" to="v15" end="10000" vehsPerHour="100"/>
    <flow id="f_155" begin="7501" departLane="best" departSpeed="max" from="h31" to="-v11" end="10000" vehsPerHour="100"/>
    <flow id="f_156" begin="7501" departLane="best" departSpeed="max" from="h31" to="h35" end="10000" vehsPerHour="100"/>
    <flow id="f_157" begin="7501" departLane="best" departSpeed="max" from="v11" to="h15" end="10000" vehsPerHour="100"/>
    <flow id="f_158" begin="7501" departLane="best" departSpeed="max" from="h31" to="v15" end="10000" vehsPerHour="100"/>
    <flow id="f_159" begin="7501" departLane="best" departSpeed="max" from="h41" to="v15" end="10000" vehsPerHour="100"/>
    <flow id="f_160" begin="7501" departLane="best" departSpeed="max" from="h41" to="-v11" end="10000" vehsPerHour="100"/>
    <flow id="f_161" begin="7501" departLane="best" departSpeed="max" from="h41" to="h45" end="10000" vehsPerHour="100"/>
    <flow id="f_162" begin="7501" departLane="best" departSpeed="max" from="-v15" to="-h41" end="10000" vehsPerHour="100"/>
    <flow id="f_163" begin="7501" departLane="best" departSpeed="max" from="-v15" to="-v11" end="10000" vehsPerHour="100"/>
    <flow id="f_164" begin="7501" departLane="best" departSpeed="max" from="-v15" to="h45" end="10000" vehsPerHour="100"/>
    <flow id="f_165" begin="7501" departLane="best" departSpeed="max" from="-v25" to="-v21" end="10000" vehsPerHour="100"/>
    <flow id="f_166" begin="7501" departLane="best" departSpeed="max" from="-v25" to="h45" end="10000" vehsPerHour="100"/>
    <flow id="f_167" begin="7501" departLane="best" departSpeed="max" from="-v25" to="-h41" end="10000" vehsPerHour="100"/>
    <flow id="f_168" begin="7501" departLane="best" departSpeed="max" from="v21" to="h15" end="10000" vehsPerHour="100"/>
    <flow id="f_169" begin="7501" departLane="best" departSpeed="max" from="-v35" to="h45" end="10000" vehsPerHour="100"/>
    <flow id="f_170" begin="7501" departLane="best" departSpeed="max" from="-v35" to="-h41" end="10000" vehsPerHour="100"/>
    <flow id="f_171" begin="7501" departLane="best" departSpeed="max" from="-v35" to="-v31" end="10000" vehsPerHour="100"/>
    <flow id="f_172" begin="7501" departLane="best" departSpeed="max" from="-v45" to="h45" end="10000" vehsPerHour="100"/>
    <flow id="f_173" begin="7501" departLane="best" departSpeed="max" from="-v45" to="-h41" end="10000" vehsPerHour="100"/>
    <flow id="f_174" begin="7501" departLane="best" departSpeed="max" from="-v45" to="-v42" end="10000" vehsPerHour="100"/>
    <flow id="f_175" begin="7501" departLane="best" departSpeed="max" from="-h45" to="v45" end="10000" vehsPerHour="100"/>
    <flow id="f_176" begin="7501" departLane="best" departSpeed="max" from="-h45" to="-h41" end="10000" vehsPerHour="100"/>
    <flow id="f_177" begin="7501" departLane="best" departSpeed="max" from="-h45" to="-v41" end="10000" vehsPerHour="100"/>
    <flow id="f_178" begin="7501" departLane="best" departSpeed="max" from="-h35" to="-h31" end="10000" vehsPerHour="100"/>
    <flow id="f_179" begin="7501" departLane="best" departSpeed="max" from="v21" to="v25" end="10000" vehsPerHour="100"/>
    <flow id="f_180" begin="7501" departLane="best" departSpeed="max" from="-h35" to="v45" end="10000" vehsPerHour="100"/>
    <flow id="f_181" begin="7501" departLane="best" departSpeed="max" from="-h35" to="-v41" end="10000" vehsPerHour="100"/>
    <flow id="f_182" begin="7501" departLane="best" departSpeed="max" from="-h25" to="v45" end="10000" vehsPerHour="100"/>
    <flow id="f_183" begin="7501" departLane="best" departSpeed="max" from="-h25" to="-h21" end="10000" vehsPerHour="100"/>
    <flow id="f_184" begin="7501" departLane="best" departSpeed="max" from="-h25" to="-v41" end="10000" vehsPerHour="100"/>
    <flow id="f_185" begin="7501" departLane="best" departSpeed="max" from="-h15" to="-v41" end="10000" vehsPerHour="100"/>
    <flow id="f_186" begin="7501" departLane="best" departSpeed="max" from="-h15" to="-h11" end="10000" vehsPerHour="100"/>
    <flow id="f_187" begin="7501" departLane="best" departSpeed="max" from="-h15" to="v45" end="10000" vehsPerHour="100"/>
    <flow id="f_188" begin="7501" departLane="best" departSpeed="max" from="v21" to="h15" end="10000" vehsPerHour="100"/>
    <flow id="f_189" begin="7501" departLane="best" departSpeed="max" from="v31" to="-h11" end="10000" vehsPerHour="100"/>
    <flow id="f_190" begin="7501" departLane="best" departSpeed="max" from="v31" to="v35" end="10000" vehsPerHour="100"/>
    <flow id="f_191" begin="7501" departLane="best" departSpeed="max" from="v31" to="h15" end="10000" vehsPerHour="100"/>
    <flow id="f_192" begin="7501" departLane="best" departSpeed="max" from="v41" to="h15" end="10000" vehsPerHour="100"/>
</routes>
