<?xml version="1.0" encoding="UTF-8"?>

<!-- generated on 2023-02-13 23:14:27 by Eclipse SUMO netedit Version 1.15.0
<configuration xmlns:xsi="http://www.w3.org/2001/XMLSchema-instance" xsi:noNamespaceSchemaLocation="http://sumo.dlr.de/xsd/netconvertConfiguration.xsd">

    <input>
        <sumo-net-file value="D:\programmi\sumo\esperimenti semafori\Reinforcement-learning-in-traffic-light\nets\4x4\4x4b.net.xml"/>
    </input>

    <output>
        <output-file value="D:\programmi\sumo\esperimenti semafori\Reinforcement-learning-in-traffic-light\nets\4x4\4x4b.net.xml"/>
    </output>

    <processing>
        <geometry.min-radius.fix.railways value="false"/>
        <geometry.max-grade.fix value="false"/>
        <offset.disable-normalization value="true"/>
        <lefthand value="0"/>
    </processing>

    <junctions>
        <no-turnarounds value="true"/>
        <junctions.corner-detail value="0"/>
        <junctions.limit-turn-speed value="-1.00"/>
        <rectangular-lane-cut value="0"/>
    </junctions>

    <pedestrian>
        <walkingareas value="0"/>
    </pedestrian>

    <netedit>
        <route-files value="D:\programmi\sumo\esperimenti semafori\Reinforcement-learning-in-traffic-light\nets\4x4\4x4b.rou.xml"/>
    </netedit>

</configuration>
-->

<edges version="1.9" xmlns:xsi="http://www.w3.org/2001/XMLSchema-instance" xsi:noNamespaceSchemaLocation="http://sumo.dlr.de/xsd/edges_file.xsd">
    <edge id="-h11" from="0" to="20" priority="-1" numLanes="2" speed="13.90"/>
    <edge id="-h12" from="1" to="0" priority="-1" numLanes="2" speed="13.90"/>
    <edge id="-h13" from="2" to="1" priority="-1" numLanes="2" speed="13.90"/>
    <edge id="-h14" from="3" to="2" priority="-1" numLanes="2" speed="13.90"/>
    <edge id="-h15" from="28" to="3" priority="-1" numLanes="2" speed="13.90"/>
    <edge id="-h21" from="4" to="21" priority="-1" numLanes="2" speed="13.90"/>
    <edge id="-h22" from="5" to="4" priority="-1" numLanes="2" speed="13.90"/>
    <edge id="-h23" from="6" to="5" priority="-1" numLanes="2" speed="13.90"/>
    <edge id="-h24" from="7" to="6" priority="-1" numLanes="2" speed="13.90"/>
    <edge id="-h25" from="29" to="7" priority="-1" numLanes="2" speed="13.90"/>
    <edge id="-h31" from="8" to="22" priority="-1" numLanes="2" speed="13.90"/>
    <edge id="-h32" from="9" to="8" priority="-1" numLanes="2" speed="13.90"/>
    <edge id="-h33" from="10" to="9" priority="-1" numLanes="2" speed="13.90"/>
    <edge id="-h34" from="11" to="10" priority="-1" numLanes="2" speed="13.90"/>
    <edge id="-h35" from="30" to="11" priority="-1" numLanes="2" speed="13.90"/>
    <edge id="-h41" from="12" to="23" priority="-1" numLanes="2" speed="13.90"/>
    <edge id="-h42" from="13" to="12" priority="-1" numLanes="2" speed="13.90"/>
    <edge id="-h43" from="14" to="13" priority="-1" numLanes="2" speed="13.90"/>
    <edge id="-h44" from="15" to="14" priority="-1" numLanes="2" speed="13.90"/>
    <edge id="-h45" from="31" to="15" priority="-1" numLanes="2" speed="13.90"/>
    <edge id="-v11" from="0" to="16" priority="-1" numLanes="2" speed="13.90"/>
    <edge id="-v12" from="4" to="0" priority="-1" numLanes="2" speed="13.90"/>
    <edge id="-v13" from="8" to="4" priority="-1" numLanes="2" speed="13.90"/>
    <edge id="-v14" from="12" to="8" priority="-1" numLanes="2" speed="13.90"/>
    <edge id="-v15" from="24" to="12" priority="-1" numLanes="2" speed="13.90"/>
    <edge id="-v21" from="1" to="17" priority="-1" numLanes="2" speed="13.90"/>
    <edge id="-v22" from="5" to="1" priority="-1" numLanes="2" speed="13.90"/>
    <edge id="-v23" from="9" to="5" priority="-1" numLanes="2" speed="13.90"/>
    <edge id="-v24" from="13" to="9" priority="-1" numLanes="2" speed="13.90"/>
    <edge id="-v25" from="25" to="13" priority="-1" numLanes="2" speed="13.90"/>
    <edge id="-v31" from="2" to="18" priority="-1" numLanes="2" speed="13.90"/>
    <edge id="-v32" from="6" to="2" priority="-1" numLanes="2" speed="13.90"/>
    <edge id="-v33" from="10" to="6" priority="-1" numLanes="2" speed="13.90"/>
    <edge id="-v34" from="14" to="10" priority="-1" numLanes="2" speed="13.90"/>
    <edge id="-v35" from="26" to="14" priority="-1" numLanes="2" speed="13.90"/>
    <edge id="-v41" from="3" to="19" priority="-1" numLanes="2" speed="13.90"/>
    <edge id="-v42" from="7" to="3" priority="-1" numLanes="2" speed="13.90"/>
    <edge id="-v43" from="11" to="7" priority="-1" numLanes="2" speed="13.90"/>
    <edge id="-v44" from="15" to="11" priority="-1" numLanes="2" speed="13.90"/>
    <edge id="-v45" from="27" to="15" priority="-1" numLanes="2" speed="13.90"/>
    <edge id="1to2" from="1" to="2" priority="-1" numLanes="2" speed="13.90"/>
    <edge id="h11" from="20" to="0" priority="-1" numLanes="2" speed="13.90"/>
    <edge id="h12" from="0" to="1" priority="-1" numLanes="2" speed="13.90"/>
    <edge id="h14" from="2" to="3" priority="-1" numLanes="2" speed="13.90"/>
    <edge id="h15" from="3" to="28" priority="-1" numLanes="2" speed="13.90"/>
    <edge id="h21" from="21" to="4" priority="-1" numLanes="2" speed="13.90"/>
    <edge id="h22" from="4" to="5" priority="-1" numLanes="2" speed="13.90"/>
    <edge id="h23" from="5" to="6" priority="-1" numLanes="2" speed="13.90"/>
    <edge id="h24" from="6" to="7" priority="-1" numLanes="2" speed="13.90"/>
    <edge id="h25" from="7" to="29" priority="-1" numLanes="2" speed="13.90"/>
    <edge id="h31" from="22" to="8" priority="-1" numLanes="2" speed="13.90"/>
    <edge id="h32" from="8" to="9" priority="-1" numLanes="2" speed="13.90"/>
    <edge id="h33" from="9" to="10" priority="-1" numLanes="2" speed="13.90"/>
    <edge id="h34" from="10" to="11" priority="-1" numLanes="2" speed="13.90"/>
    <edge id="h35" from="11" to="30" priority="-1" numLanes="2" speed="13.90"/>
    <edge id="h41" from="23" to="12" priority="-1" numLanes="2" speed="13.90"/>
    <edge id="h42" from="12" to="13" priority="-1" numLanes="2" speed="13.90"/>
    <edge id="h43" from="13" to="14" priority="-1" numLanes="2" speed="13.90"/>
    <edge id="h44" from="14" to="15" priority="-1" numLanes="2" speed="13.90"/>
    <edge id="h45" from="15" to="31" priority="-1" numLanes="2" speed="13.90"/>
    <edge id="v11" from="16" to="0" priority="-1" numLanes="2" speed="13.90"/>
    <edge id="v12" from="0" to="4" priority="-1" numLanes="2" speed="13.90"/>
    <edge id="v13" from="4" to="8" priority="-1" numLanes="2" speed="13.90"/>
    <edge id="v14" from="8" to="12" priority="-1" numLanes="2" speed="13.90"/>
    <edge id="v15" from="12" to="24" priority="-1" numLanes="2" speed="13.90"/>
    <edge id="v21" from="17" to="1" priority="-1" numLanes="2" speed="13.90"/>
    <edge id="v22" from="1" to="5" priority="-1" numLanes="2" speed="13.90"/>
    <edge id="v23" from="5" to="9" priority="-1" numLanes="2" speed="13.90"/>
    <edge id="v24" from="9" to="13" priority="-1" numLanes="2" speed="13.90"/>
    <edge id="v25" from="13" to="25" priority="-1" numLanes="2" speed="13.90"/>
    <edge id="v31" from="18" to="2" priority="-1" numLanes="2" speed="13.90"/>
    <edge id="v32" from="2" to="6" priority="-1" numLanes="2" speed="13.90"/>
    <edge id="v33" from="6" to="10" priority="-1" numLanes="2" speed="13.90"/>
    <edge id="v34" from="10" to="14" priority="-1" numLanes="2" speed="13.90"/>
    <edge id="v35" from="14" to="26" priority="-1" numLanes="2" speed="13.90"/>
    <edge id="v41" from="19" to="3" priority="-1" numLanes="2" speed="13.90"/>
    <edge id="v42" from="3" to="7" priority="-1" numLanes="2" speed="13.90"/>
    <edge id="v43" from="7" to="11" priority="-1" numLanes="2" speed="13.90"/>
    <edge id="v44" from="11" to="15" priority="-1" numLanes="2" speed="13.90"/>
    <edge id="v45" from="15" to="27" priority="-1" numLanes="2" speed="13.90"/>
</edges>
