<?xml version="1.0" encoding="UTF-8"?>

<!-- generated on 2023-02-13 23:14:27 by Eclipse SUMO netedit Version 1.15.0
<configuration xmlns:xsi="http://www.w3.org/2001/XMLSchema-instance" xsi:noNamespaceSchemaLocation="http://sumo.dlr.de/xsd/netconvertConfiguration.xsd">

    <input>
        <sumo-net-file value="D:\programmi\sumo\esperimenti semafori\Reinforcement-learning-in-traffic-light\nets\4x4\4x4b.net.xml"/>
    </input>

    <output>
        <output-file value="D:\programmi\sumo\esperimenti semafori\Reinforcement-learning-in-traffic-light\nets\4x4\4x4b.net.xml"/>
    </output>

    <processing>
        <geometry.min-radius.fix.railways value="false"/>
        <geometry.max-grade.fix value="false"/>
        <offset.disable-normalization value="true"/>
        <lefthand value="0"/>
    </processing>

    <junctions>
        <no-turnarounds value="true"/>
        <junctions.corner-detail value="0"/>
        <junctions.limit-turn-speed value="-1.00"/>
        <rectangular-lane-cut value="0"/>
    </junctions>

    <pedestrian>
        <walkingareas value="0"/>
    </pedestrian>

    <netedit>
        <route-files value="D:\programmi\sumo\esperimenti semafori\Reinforcement-learning-in-traffic-light\nets\4x4\4x4b.rou.xml"/>
    </netedit>

</configuration>
-->

<tlLogics version="1.9" xmlns:xsi="http://www.w3.org/2001/XMLSchema-instance" xsi:noNamespaceSchemaLocation="http://sumo.dlr.de/xsd/tllogic_file.xsd">
    <tlLogic id="0" type="static" programID="0" offset="0">
        <phase duration="33" state="GGrrrrGGrrrr"/>
        <phase duration="3"  state="yyrrrryyrrrr"/>
        <phase duration="6"  state="rrGrrrrrGrrr"/>
        <phase duration="3"  state="rryrrrrryrrr"/>
        <phase duration="33" state="rrrGGrrrrGGr"/>
        <phase duration="3"  state="rrryyrrrryyr"/>
        <phase duration="6"  state="rrrrrGrrrrrG"/>
        <phase duration="3"  state="rrrrryrrrrry"/>
    </tlLogic>
    <tlLogic id="1" type="static" programID="0" offset="0">
        <phase duration="33" state="GGrrrrGGrrrr"/>
        <phase duration="3"  state="yyrrrryyrrrr"/>
        <phase duration="6"  state="rrGrrrrrGrrr"/>
        <phase duration="3"  state="rryrrrrryrrr"/>
        <phase duration="33" state="rrrGGrrrrGGr"/>
        <phase duration="3"  state="rrryyrrrryyr"/>
        <phase duration="6"  state="rrrrrGrrrrrG"/>
        <phase duration="3"  state="rrrrryrrrrry"/>
    </tlLogic>
    <tlLogic id="10" type="static" programID="0" offset="0">
        <phase duration="33" state="GGrrrrGGrrrr"/>
        <phase duration="3"  state="yyrrrryyrrrr"/>
        <phase duration="6"  state="rrGrrrrrGrrr"/>
        <phase duration="3"  state="rryrrrrryrrr"/>
        <phase duration="33" state="rrrGGrrrrGGr"/>
        <phase duration="3"  state="rrryyrrrryyr"/>
        <phase duration="6"  state="rrrrrGrrrrrG"/>
        <phase duration="3"  state="rrrrryrrrrry"/>
    </tlLogic>
    <tlLogic id="11" type="static" programID="0" offset="0">
        <phase duration="33" state="GGrrrrGGrrrr"/>
        <phase duration="3"  state="yyrrrryyrrrr"/>
        <phase duration="6"  state="rrGrrrrrGrrr"/>
        <phase duration="3"  state="rryrrrrryrrr"/>
        <phase duration="33" state="rrrGGrrrrGGr"/>
        <phase duration="3"  state="rrryyrrrryyr"/>
        <phase duration="6"  state="rrrrrGrrrrrG"/>
        <phase duration="3"  state="rrrrryrrrrry"/>
    </tlLogic>
    <tlLogic id="12" type="static" programID="0" offset="0">
        <phase duration="33" state="GGrrrrGGrrrr"/>
        <phase duration="3"  state="yyrrrryyrrrr"/>
        <phase duration="6"  state="rrGrrrrrGrrr"/>
        <phase duration="3"  state="rryrrrrryrrr"/>
        <phase duration="33" state="rrrGGrrrrGGr"/>
        <phase duration="3"  state="rrryyrrrryyr"/>
        <phase duration="6"  state="rrrrrGrrrrrG"/>
        <phase duration="3"  state="rrrrryrrrrry"/>
    </tlLogic>
    <tlLogic id="13" type="static" programID="0" offset="0">
        <phase duration="33" state="GGrrrrGGrrrr"/>
        <phase duration="3"  state="yyrrrryyrrrr"/>
        <phase duration="6"  state="rrGrrrrrGrrr"/>
        <phase duration="3"  state="rryrrrrryrrr"/>
        <phase duration="33" state="rrrGGrrrrGGr"/>
        <phase duration="3"  state="rrryyrrrryyr"/>
        <phase duration="6"  state="rrrrrGrrrrrG"/>
        <phase duration="3"  state="rrrrryrrrrry"/>
    </tlLogic>
    <tlLogic id="14" type="static" programID="0" offset="0">
        <phase duration="33" state="GGrrrrGGrrrr"/>
        <phase duration="3"  state="yyrrrryyrrrr"/>
        <phase duration="6"  state="rrGrrrrrGrrr"/>
        <phase duration="3"  state="rryrrrrryrrr"/>
        <phase duration="33" state="rrrGGrrrrGGr"/>
        <phase duration="3"  state="rrryyrrrryyr"/>
        <phase duration="6"  state="rrrrrGrrrrrG"/>
        <phase duration="3"  state="rrrrryrrrrry"/>
    </tlLogic>
    <tlLogic id="15" type="static" programID="0" offset="0">
        <phase duration="33" state="GGrrrrGGrrrr"/>
        <phase duration="3"  state="yyrrrryyrrrr"/>
        <phase duration="6"  state="rrGrrrrrGrrr"/>
        <phase duration="3"  state="rryrrrrryrrr"/>
        <phase duration="33" state="rrrGGrrrrGGr"/>
        <phase duration="3"  state="rrryyrrrryyr"/>
        <phase duration="6"  state="rrrrrGrrrrrG"/>
        <phase duration="3"  state="rrrrryrrrrry"/>
    </tlLogic>
    <tlLogic id="2" type="static" programID="0" offset="0">
        <phase duration="33" state="GGrrrrGGrrrr"/>
        <phase duration="3"  state="yyrrrryyrrrr"/>
        <phase duration="6"  state="rrGrrrrrGrrr"/>
        <phase duration="3"  state="rryrrrrryrrr"/>
        <phase duration="33" state="rrrGGrrrrGGr"/>
        <phase duration="3"  state="rrryyrrrryyr"/>
        <phase duration="6"  state="rrrrrGrrrrrG"/>
        <phase duration="3"  state="rrrrryrrrrry"/>
    </tlLogic>
    <tlLogic id="3" type="static" programID="0" offset="0">
        <phase duration="33" state="GGrrrrGGrrrr"/>
        <phase duration="3"  state="yyrrrryyrrrr"/>
        <phase duration="6"  state="rrGrrrrrGrrr"/>
        <phase duration="3"  state="rryrrrrryrrr"/>
        <phase duration="33" state="rrrGGrrrrGGr"/>
        <phase duration="3"  state="rrryyrrrryyr"/>
        <phase duration="6"  state="rrrrrGrrrrrG"/>
        <phase duration="3"  state="rrrrryrrrrry"/>
    </tlLogic>
    <tlLogic id="4" type="static" programID="0" offset="0">
        <phase duration="33" state="GGrrrrGGrrrr"/>
        <phase duration="3"  state="yyrrrryyrrrr"/>
        <phase duration="6"  state="rrGrrrrrGrrr"/>
        <phase duration="3"  state="rryrrrrryrrr"/>
        <phase duration="33" state="rrrGGrrrrGGr"/>
        <phase duration="3"  state="rrryyrrrryyr"/>
        <phase duration="6"  state="rrrrrGrrrrrG"/>
        <phase duration="3"  state="rrrrryrrrrry"/>
    </tlLogic>
    <tlLogic id="5" type="static" programID="0" offset="0">
        <phase duration="33" state="GGrrrrGGrrrr"/>
        <phase duration="3"  state="yyrrrryyrrrr"/>
        <phase duration="6"  state="rrGrrrrrGrrr"/>
        <phase duration="3"  state="rryrrrrryrrr"/>
        <phase duration="33" state="rrrGGrrrrGGr"/>
        <phase duration="3"  state="rrryyrrrryyr"/>
        <phase duration="6"  state="rrrrrGrrrrrG"/>
        <phase duration="3"  state="rrrrryrrrrry"/>
    </tlLogic>
    <tlLogic id="6" type="static" programID="0" offset="0">
        <phase duration="33" state="GGrrrrGGrrrr"/>
        <phase duration="3"  state="yyrrrryyrrrr"/>
        <phase duration="6"  state="rrGrrrrrGrrr"/>
        <phase duration="3"  state="rryrrrrryrrr"/>
        <phase duration="33" state="rrrGGrrrrGGr"/>
        <phase duration="3"  state="rrryyrrrryyr"/>
        <phase duration="6"  state="rrrrrGrrrrrG"/>
        <phase duration="3"  state="rrrrryrrrrry"/>
    </tlLogic>
    <tlLogic id="7" type="static" programID="0" offset="0">
        <phase duration="33" state="GGrrrrGGrrrr"/>
        <phase duration="3"  state="yyrrrryyrrrr"/>
        <phase duration="6"  state="rrGrrrrrGrrr"/>
        <phase duration="3"  state="rryrrrrryrrr"/>
        <phase duration="33" state="rrrGGrrrrGGr"/>
        <phase duration="3"  state="rrryyrrrryyr"/>
        <phase duration="6"  state="rrrrrGrrrrrG"/>
        <phase duration="3"  state="rrrrryrrrrry"/>
    </tlLogic>
    <tlLogic id="8" type="static" programID="0" offset="0">
        <phase duration="33" state="GGrrrrGGrrrr"/>
        <phase duration="3"  state="yyrrrryyrrrr"/>
        <phase duration="6"  state="rrGrrrrrGrrr"/>
        <phase duration="3"  state="rryrrrrryrrr"/>
        <phase duration="33" state="rrrGGrrrrGGr"/>
        <phase duration="3"  state="rrryyrrrryyr"/>
        <phase duration="6"  state="rrrrrGrrrrrG"/>
        <phase duration="3"  state="rrrrryrrrrry"/>
    </tlLogic>
    <tlLogic id="9" type="static" programID="0" offset="0">
        <phase duration="33" state="GGrrrrGGrrrr"/>
        <phase duration="3"  state="yyrrrryyrrrr"/>
        <phase duration="6"  state="rrGrrrrrGrrr"/>
        <phase duration="3"  state="rryrrrrryrrr"/>
        <phase duration="33" state="rrrGGrrrrGGr"/>
        <phase duration="3"  state="rrryyrrrryyr"/>
        <phase duration="6"  state="rrrrrGrrrrrG"/>
        <phase duration="3"  state="rrrrryrrrrry"/>
    </tlLogic>

    <connection from="-h12" to="-v11" fromLane="0" toLane="0" tl="0" linkIndex="3"/>
    <connection from="-h12" to="-h11" fromLane="0" toLane="0" tl="0" linkIndex="4"/>
    <connection from="-h12" to="v12" fromLane="1" toLane="1" tl="0" linkIndex="5"/>
    <connection from="-h13" to="-v21" fromLane="0" toLane="0" tl="1" linkIndex="3"/>
    <connection from="-h13" to="-h12" fromLane="0" toLane="0" tl="1" linkIndex="4"/>
    <connection from="-h13" to="v22" fromLane="1" toLane="1" tl="1" linkIndex="5"/>
    <connection from="-h14" to="-v31" fromLane="0" toLane="0" tl="2" linkIndex="3"/>
    <connection from="-h14" to="-h13" fromLane="0" toLane="0" tl="2" linkIndex="4"/>
    <connection from="-h14" to="v32" fromLane="1" toLane="1" tl="2" linkIndex="5"/>
    <connection from="-h15" to="-v41" fromLane="0" toLane="0" tl="3" linkIndex="3"/>
    <connection from="-h15" to="-h14" fromLane="0" toLane="0" tl="3" linkIndex="4"/>
    <connection from="-h15" to="v42" fromLane="1" toLane="1" tl="3" linkIndex="5"/>
    <connection from="-h22" to="-v12" fromLane="0" toLane="0" tl="4" linkIndex="3"/>
    <connection from="-h22" to="-h21" fromLane="0" toLane="0" tl="4" linkIndex="4"/>
    <connection from="-h22" to="v13" fromLane="1" toLane="1" tl="4" linkIndex="5"/>
    <connection from="-h23" to="-v22" fromLane="0" toLane="0" tl="5" linkIndex="3"/>
    <connection from="-h23" to="-h22" fromLane="0" toLane="0" tl="5" linkIndex="4"/>
    <connection from="-h23" to="v23" fromLane="1" toLane="1" tl="5" linkIndex="5"/>
    <connection from="-h24" to="-v32" fromLane="0" toLane="0" tl="6" linkIndex="3"/>
    <connection from="-h24" to="-h23" fromLane="0" toLane="0" tl="6" linkIndex="4"/>
    <connection from="-h24" to="v33" fromLane="1" toLane="1" tl="6" linkIndex="5"/>
    <connection from="-h25" to="-v42" fromLane="0" toLane="0" tl="7" linkIndex="3"/>
    <connection from="-h25" to="-h24" fromLane="0" toLane="0" tl="7" linkIndex="4"/>
    <connection from="-h25" to="v43" fromLane="1" toLane="1" tl="7" linkIndex="5"/>
    <connection from="-h32" to="-v13" fromLane="0" toLane="0" tl="8" linkIndex="3"/>
    <connection from="-h32" to="-h31" fromLane="0" toLane="0" tl="8" linkIndex="4"/>
    <connection from="-h32" to="v14" fromLane="1" toLane="1" tl="8" linkIndex="5"/>
    <connection from="-h33" to="-v23" fromLane="0" toLane="0" tl="9" linkIndex="3"/>
    <connection from="-h33" to="-h32" fromLane="0" toLane="0" tl="9" linkIndex="4"/>
    <connection from="-h33" to="v24" fromLane="1" toLane="1" tl="9" linkIndex="5"/>
    <connection from="-h34" to="-v33" fromLane="0" toLane="0" tl="10" linkIndex="3"/>
    <connection from="-h34" to="-h33" fromLane="0" toLane="0" tl="10" linkIndex="4"/>
    <connection from="-h34" to="v34" fromLane="1" toLane="1" tl="10" linkIndex="5"/>
    <connection from="-h35" to="-v43" fromLane="0" toLane="0" tl="11" linkIndex="3"/>
    <connection from="-h35" to="-h34" fromLane="0" toLane="0" tl="11" linkIndex="4"/>
    <connection from="-h35" to="v44" fromLane="1" toLane="1" tl="11" linkIndex="5"/>
    <connection from="-h42" to="-v14" fromLane="0" toLane="0" tl="12" linkIndex="3"/>
    <connection from="-h42" to="-h41" fromLane="0" toLane="0" tl="12" linkIndex="4"/>
    <connection from="-h42" to="v15" fromLane="1" toLane="1" tl="12" linkIndex="5"/>
    <connection from="-h43" to="-v24" fromLane="0" toLane="0" tl="13" linkIndex="3"/>
    <connection from="-h43" to="-h42" fromLane="0" toLane="0" tl="13" linkIndex="4"/>
    <connection from="-h43" to="v25" fromLane="1" toLane="1" tl="13" linkIndex="5"/>
    <connection from="-h44" to="-v34" fromLane="0" toLane="0" tl="14" linkIndex="3"/>
    <connection from="-h44" to="-h43" fromLane="0" toLane="0" tl="14" linkIndex="4"/>
    <connection from="-h44" to="v35" fromLane="1" toLane="1" tl="14" linkIndex="5"/>
    <connection from="-h45" to="-v44" fromLane="0" toLane="0" tl="15" linkIndex="3"/>
    <connection from="-h45" to="-h44" fromLane="0" toLane="0" tl="15" linkIndex="4"/>
    <connection from="-h45" to="v45" fromLane="1" toLane="1" tl="15" linkIndex="5"/>
    <connection from="-v12" to="h12" fromLane="0" toLane="0" tl="0" linkIndex="6"/>
    <connection from="-v12" to="-v11" fromLane="0" toLane="0" tl="0" linkIndex="7"/>
    <connection from="-v12" to="-h11" fromLane="1" toLane="1" tl="0" linkIndex="8"/>
    <connection from="-v13" to="h22" fromLane="0" toLane="0" tl="4" linkIndex="6"/>
    <connection from="-v13" to="-v12" fromLane="0" toLane="0" tl="4" linkIndex="7"/>
    <connection from="-v13" to="-h21" fromLane="1" toLane="1" tl="4" linkIndex="8"/>
    <connection from="-v14" to="h32" fromLane="0" toLane="0" tl="8" linkIndex="6"/>
    <connection from="-v14" to="-v13" fromLane="0" toLane="0" tl="8" linkIndex="7"/>
    <connection from="-v14" to="-h31" fromLane="1" toLane="1" tl="8" linkIndex="8"/>
    <connection from="-v15" to="h42" fromLane="0" toLane="0" tl="12" linkIndex="6"/>
    <connection from="-v15" to="-v14" fromLane="0" toLane="0" tl="12" linkIndex="7"/>
    <connection from="-v15" to="-h41" fromLane="1" toLane="1" tl="12" linkIndex="8"/>
    <connection from="-v22" to="1to2" fromLane="0" toLane="0" tl="1" linkIndex="6"/>
    <connection from="-v22" to="-v21" fromLane="0" toLane="0" tl="1" linkIndex="7"/>
    <connection from="-v22" to="-h12" fromLane="1" toLane="1" tl="1" linkIndex="8"/>
    <connection from="-v23" to="h23" fromLane="0" toLane="0" tl="5" linkIndex="6"/>
    <connection from="-v23" to="-v22" fromLane="0" toLane="0" tl="5" linkIndex="7"/>
    <connection from="-v23" to="-h22" fromLane="1" toLane="1" tl="5" linkIndex="8"/>
    <connection from="-v24" to="h33" fromLane="0" toLane="0" tl="9" linkIndex="6"/>
    <connection from="-v24" to="-v23" fromLane="0" toLane="0" tl="9" linkIndex="7"/>
    <connection from="-v24" to="-h32" fromLane="1" toLane="1" tl="9" linkIndex="8"/>
    <connection from="-v25" to="h43" fromLane="0" toLane="0" tl="13" linkIndex="6"/>
    <connection from="-v25" to="-v24" fromLane="0" toLane="0" tl="13" linkIndex="7"/>
    <connection from="-v25" to="-h42" fromLane="1" toLane="1" tl="13" linkIndex="8"/>
    <connection from="-v32" to="h14" fromLane="0" toLane="0" tl="2" linkIndex="6"/>
    <connection from="-v32" to="-v31" fromLane="0" toLane="0" tl="2" linkIndex="7"/>
    <connection from="-v32" to="-h13" fromLane="1" toLane="1" tl="2" linkIndex="8"/>
    <connection from="-v33" to="h24" fromLane="0" toLane="0" tl="6" linkIndex="6"/>
    <connection from="-v33" to="-v32" fromLane="0" toLane="0" tl="6" linkIndex="7"/>
    <connection from="-v33" to="-h23" fromLane="1" toLane="1" tl="6" linkIndex="8"/>
    <connection from="-v34" to="h34" fromLane="0" toLane="0" tl="10" linkIndex="6"/>
    <connection from="-v34" to="-v33" fromLane="0" toLane="0" tl="10" linkIndex="7"/>
    <connection from="-v34" to="-h33" fromLane="1" toLane="1" tl="10" linkIndex="8"/>
    <connection from="-v35" to="h44" fromLane="0" toLane="0" tl="14" linkIndex="6"/>
    <connection from="-v35" to="-v34" fromLane="0" toLane="0" tl="14" linkIndex="7"/>
    <connection from="-v35" to="-h43" fromLane="1" toLane="1" tl="14" linkIndex="8"/>
    <connection from="-v42" to="h15" fromLane="0" toLane="0" tl="3" linkIndex="6"/>
    <connection from="-v42" to="-v41" fromLane="0" toLane="0" tl="3" linkIndex="7"/>
    <connection from="-v42" to="-h14" fromLane="1" toLane="1" tl="3" linkIndex="8"/>
    <connection from="-v43" to="h25" fromLane="0" toLane="0" tl="7" linkIndex="6"/>
    <connection from="-v43" to="-v42" fromLane="0" toLane="0" tl="7" linkIndex="7"/>
    <connection from="-v43" to="-h24" fromLane="1" toLane="1" tl="7" linkIndex="8"/>
    <connection from="-v44" to="h35" fromLane="0" toLane="0" tl="11" linkIndex="6"/>
    <connection from="-v44" to="-v43" fromLane="0" toLane="0" tl="11" linkIndex="7"/>
    <connection from="-v44" to="-h34" fromLane="1" toLane="1" tl="11" linkIndex="8"/>
    <connection from="-v45" to="h45" fromLane="0" toLane="0" tl="15" linkIndex="6"/>
    <connection from="-v45" to="-v44" fromLane="0" toLane="0" tl="15" linkIndex="7"/>
    <connection from="-v45" to="-h44" fromLane="1" toLane="1" tl="15" linkIndex="8"/>
    <connection from="1to2" to="v32" fromLane="0" toLane="0" tl="2" linkIndex="9"/>
    <connection from="1to2" to="h14" fromLane="0" toLane="0" tl="2" linkIndex="10"/>
    <connection from="1to2" to="-v31" fromLane="1" toLane="1" tl="2" linkIndex="11"/>
    <connection from="h11" to="v12" fromLane="0" toLane="0" tl="0" linkIndex="9"/>
    <connection from="h11" to="h12" fromLane="0" toLane="0" tl="0" linkIndex="10"/>
    <connection from="h11" to="-v11" fromLane="1" toLane="1" tl="0" linkIndex="11"/>
    <connection from="h12" to="v22" fromLane="0" toLane="0" tl="1" linkIndex="9"/>
    <connection from="h12" to="1to2" fromLane="0" toLane="0" tl="1" linkIndex="10"/>
    <connection from="h12" to="-v21" fromLane="1" toLane="1" tl="1" linkIndex="11"/>
    <connection from="h14" to="v42" fromLane="0" toLane="0" tl="3" linkIndex="9"/>
    <connection from="h14" to="h15" fromLane="0" toLane="0" tl="3" linkIndex="10"/>
    <connection from="h14" to="-v41" fromLane="1" toLane="1" tl="3" linkIndex="11"/>
    <connection from="h21" to="v13" fromLane="0" toLane="0" tl="4" linkIndex="9"/>
    <connection from="h21" to="h22" fromLane="0" toLane="0" tl="4" linkIndex="10"/>
    <connection from="h21" to="-v12" fromLane="1" toLane="1" tl="4" linkIndex="11"/>
    <connection from="h22" to="v23" fromLane="0" toLane="0" tl="5" linkIndex="9"/>
    <connection from="h22" to="h23" fromLane="0" toLane="0" tl="5" linkIndex="10"/>
    <connection from="h22" to="-v22" fromLane="1" toLane="1" tl="5" linkIndex="11"/>
    <connection from="h23" to="v33" fromLane="0" toLane="0" tl="6" linkIndex="9"/>
    <connection from="h23" to="h24" fromLane="0" toLane="0" tl="6" linkIndex="10"/>
    <connection from="h23" to="-v32" fromLane="1" toLane="1" tl="6" linkIndex="11"/>
    <connection from="h24" to="v43" fromLane="0" toLane="0" tl="7" linkIndex="9"/>
    <connection from="h24" to="h25" fromLane="0" toLane="0" tl="7" linkIndex="10"/>
    <connection from="h24" to="-v42" fromLane="1" toLane="1" tl="7" linkIndex="11"/>
    <connection from="h31" to="v14" fromLane="0" toLane="0" tl="8" linkIndex="9"/>
    <connection from="h31" to="h32" fromLane="0" toLane="0" tl="8" linkIndex="10"/>
    <connection from="h31" to="-v13" fromLane="1" toLane="1" tl="8" linkIndex="11"/>
    <connection from="h32" to="v24" fromLane="0" toLane="0" tl="9" linkIndex="9"/>
    <connection from="h32" to="h33" fromLane="0" toLane="0" tl="9" linkIndex="10"/>
    <connection from="h32" to="-v23" fromLane="1" toLane="1" tl="9" linkIndex="11"/>
    <connection from="h33" to="v34" fromLane="0" toLane="0" tl="10" linkIndex="9"/>
    <connection from="h33" to="h34" fromLane="0" toLane="0" tl="10" linkIndex="10"/>
    <connection from="h33" to="-v33" fromLane="1" toLane="1" tl="10" linkIndex="11"/>
    <connection from="h34" to="v44" fromLane="0" toLane="0" tl="11" linkIndex="9"/>
    <connection from="h34" to="h35" fromLane="0" toLane="0" tl="11" linkIndex="10"/>
    <connection from="h34" to="-v43" fromLane="1" toLane="1" tl="11" linkIndex="11"/>
    <connection from="h41" to="v15" fromLane="0" toLane="0" tl="12" linkIndex="9"/>
    <connection from="h41" to="h42" fromLane="0" toLane="0" tl="12" linkIndex="10"/>
    <connection from="h41" to="-v14" fromLane="1" toLane="1" tl="12" linkIndex="11"/>
    <connection from="h42" to="v25" fromLane="0" toLane="0" tl="13" linkIndex="9"/>
    <connection from="h42" to="h43" fromLane="0" toLane="0" tl="13" linkIndex="10"/>
    <connection from="h42" to="-v24" fromLane="1" toLane="1" tl="13" linkIndex="11"/>
    <connection from="h43" to="v35" fromLane="0" toLane="0" tl="14" linkIndex="9"/>
    <connection from="h43" to="h44" fromLane="0" toLane="0" tl="14" linkIndex="10"/>
    <connection from="h43" to="-v34" fromLane="1" toLane="1" tl="14" linkIndex="11"/>
    <connection from="h44" to="v45" fromLane="0" toLane="0" tl="15" linkIndex="9"/>
    <connection from="h44" to="h45" fromLane="0" toLane="0" tl="15" linkIndex="10"/>
    <connection from="h44" to="-v44" fromLane="1" toLane="1" tl="15" linkIndex="11"/>
    <connection from="v11" to="-h11" fromLane="0" toLane="0" tl="0" linkIndex="0"/>
    <connection from="v11" to="v12" fromLane="0" toLane="0" tl="0" linkIndex="1"/>
    <connection from="v11" to="h12" fromLane="1" toLane="1" tl="0" linkIndex="2"/>
    <connection from="v12" to="-h21" fromLane="0" toLane="0" tl="4" linkIndex="0"/>
    <connection from="v12" to="v13" fromLane="0" toLane="0" tl="4" linkIndex="1"/>
    <connection from="v12" to="h22" fromLane="1" toLane="1" tl="4" linkIndex="3"/>
    <connection from="v13" to="-h31" fromLane="0" toLane="0" tl="8" linkIndex="0"/>
    <connection from="v13" to="v14" fromLane="0" toLane="0" tl="8" linkIndex="1"/>
    <connection from="v13" to="h32" fromLane="1" toLane="1" tl="8" linkIndex="2"/>
    <connection from="v14" to="-h41" fromLane="0" toLane="0" tl="12" linkIndex="0"/>
    <connection from="v14" to="v15" fromLane="0" toLane="0" tl="12" linkIndex="1"/>
    <connection from="v14" to="h42" fromLane="1" toLane="1" tl="12" linkIndex="2"/>
    <connection from="v21" to="-h12" fromLane="0" toLane="0" tl="1" linkIndex="0"/>
    <connection from="v21" to="v22" fromLane="0" toLane="0" tl="1" linkIndex="1"/>
    <connection from="v21" to="1to2" fromLane="1" toLane="1" tl="1" linkIndex="2"/>
    <connection from="v22" to="-h22" fromLane="0" toLane="0" tl="5" linkIndex="0"/>
    <connection from="v22" to="v23" fromLane="0" toLane="0" tl="5" linkIndex="1"/>
    <connection from="v22" to="h23" fromLane="1" toLane="1" tl="5" linkIndex="2"/>
    <connection from="v23" to="-h32" fromLane="0" toLane="0" tl="9" linkIndex="0"/>
    <connection from="v23" to="v24" fromLane="0" toLane="0" tl="9" linkIndex="1"/>
    <connection from="v23" to="h33" fromLane="1" toLane="1" tl="9" linkIndex="2"/>
    <connection from="v24" to="-h42" fromLane="0" toLane="0" tl="13" linkIndex="0"/>
    <connection from="v24" to="v25" fromLane="0" toLane="0" tl="13" linkIndex="1"/>
    <connection from="v24" to="h43" fromLane="1" toLane="1" tl="13" linkIndex="2"/>
    <connection from="v31" to="-h13" fromLane="0" toLane="0" tl="2" linkIndex="0"/>
    <connection from="v31" to="v32" fromLane="0" toLane="0" tl="2" linkIndex="1"/>
    <connection from="v31" to="h14" fromLane="1" toLane="1" tl="2" linkIndex="2"/>
    <connection from="v32" to="-h23" fromLane="0" toLane="0" tl="6" linkIndex="0"/>
    <connection from="v32" to="v33" fromLane="0" toLane="0" tl="6" linkIndex="1"/>
    <connection from="v32" to="h24" fromLane="1" toLane="1" tl="6" linkIndex="2"/>
    <connection from="v33" to="-h33" fromLane="0" toLane="0" tl="10" linkIndex="0"/>
    <connection from="v33" to="v34" fromLane="0" toLane="0" tl="10" linkIndex="1"/>
    <connection from="v33" to="h34" fromLane="1" toLane="1" tl="10" linkIndex="2"/>
    <connection from="v34" to="-h43" fromLane="0" toLane="0" tl="14" linkIndex="0"/>
    <connection from="v34" to="v35" fromLane="0" toLane="0" tl="14" linkIndex="1"/>
    <connection from="v34" to="h44" fromLane="1" toLane="1" tl="14" linkIndex="2"/>
    <connection from="v41" to="-h14" fromLane="0" toLane="0" tl="3" linkIndex="0"/>
    <connection from="v41" to="v42" fromLane="0" toLane="0" tl="3" linkIndex="1"/>
    <connection from="v41" to="h15" fromLane="1" toLane="1" tl="3" linkIndex="2"/>
    <connection from="v42" to="-h24" fromLane="0" toLane="0" tl="7" linkIndex="0"/>
    <connection from="v42" to="v43" fromLane="0" toLane="0" tl="7" linkIndex="1"/>
    <connection from="v42" to="h25" fromLane="1" toLane="1" tl="7" linkIndex="2"/>
    <connection from="v43" to="-h34" fromLane="0" toLane="0" tl="11" linkIndex="0"/>
    <connection from="v43" to="v44" fromLane="0" toLane="0" tl="11" linkIndex="1"/>
    <connection from="v43" to="h35" fromLane="1" toLane="1" tl="11" linkIndex="2"/>
    <connection from="v44" to="-h44" fromLane="0" toLane="0" tl="15" linkIndex="0"/>
    <connection from="v44" to="v45" fromLane="0" toLane="0" tl="15" linkIndex="1"/>
    <connection from="v44" to="h45" fromLane="1" toLane="1" tl="15" linkIndex="2"/>
</tlLogics>
